
     RDKit          3D

 11 12  0  0  0  0  0  0  0  0999 V2000
    7.5440  -32.1010  -31.2800 N   0  0  0  0  0  0  0  0  0  0  0  0
    8.0100  -32.8380  -32.2010 N   0  0  0  0  0  0  0  0  0  0  0  0
   10.3900  -33.1850  -32.6500 C   0  0  0  0  0  0  0  0  0  0  0  0
    7.0850  -32.5180  -32.9890 C   0  0  0  0  0  0  0  0  0  0  0  0
   11.1830  -33.7990  -33.2050 C   0  0  0  0  0  0  0  0  0  0  0  0
    6.4100  -31.5820  -31.4270 C   0  0  0  0  0  0  0  0  0  0  0  0
    9.6030  -35.8070  -33.8080 C   0  0  0  0  0  0  0  0  0  0  0  0
    6.0080  -32.2470  -32.9480 N   0  0  0  0  0  0  0  0  0  0  0  0
    8.9230  -33.6890  -32.6740 C   0  0  0  0  0  0  0  0  0  0  0  0
    8.6140  -34.9590  -33.2030 C   0  0  0  0  0  0  0  0  0  0  0  0
   11.0460  -35.3120  -34.3670 S   0  0  0  0  0  0  0  0  0  0  0  0
  2  1  1  0
  4  8  1  0
  4  2  1  0
  5  3  2  0
  6  1  1  0
  7 10  1  0
  8  6  1  0
  9  3  1  0
  9  2  1  0
 10  9  2  0
 11  7  1  0
 11  5  1  0
M  END
$$$$

     RDKit          3D

 19 21  0  0  0  0  0  0  0  0999 V2000
   10.5590  -32.5080  -29.9330 C   0  0  0  0  0  0  0  0  0  0  0  0
    6.2090  -35.7920  -35.8590 O   0  0  0  0  0  0  0  0  0  0  0  0
    8.2050  -35.0670  -34.7460 C   0  0  0  0  0  0  0  0  0  0  0  0
    6.8410  -32.3710  -32.7380 O   0  0  0  0  0  0  0  0  0  0  0  0
    8.9500  -35.5080  -35.8180 C   0  0  0  0  0  0  0  0  0  0  0  0
    7.8550  -32.6940  -32.2750 C   0  0  0  0  0  0  0  0  0  0  0  0
    6.6430  -35.1810  -34.9070 C   0  0  0  0  0  0  0  0  0  0  0  0
   11.5540  -33.3590  -30.3750 C   0  0  0  0  0  0  0  0  0  0  0  0
    7.5710  -31.3200  -30.5630 C   0  0  0  0  0  0  0  0  0  0  0  0
    8.8390  -34.4450  -33.6920 C   0  0  0  0  0  0  0  0  0  0  0  0
    9.8380  -33.4980  -31.8070 C   0  0  0  0  0  0  0  0  0  0  0  0
    8.3020  -31.9330  -31.0230 N   0  0  0  0  0  0  0  0  0  0  0  0
   10.2040  -34.7520  -33.4690 C   0  0  0  0  0  0  0  0  0  0  0  0
   10.9190  -35.2650  -34.4270 C   0  0  0  0  0  0  0  0  0  0  0  0
   10.2760  -35.6460  -35.6740 C   0  0  0  0  0  0  0  0  0  0  0  0
    8.7650  -33.5580  -32.6250 N   0  0  0  0  0  0  0  0  0  0  0  0
   11.1300  -33.8750  -31.5210 N   0  0  0  0  0  0  0  0  0  0  0  0
    9.5790  -32.5980  -30.8560 C   0  0  0  0  0  0  0  0  0  0  0  0
    5.8250  -34.5840  -34.1670 O   0  0  0  0  0  0  0  0  0  0  0  0
  2  7  2  0
  3 10  1  0
  4  6  2  0
  5 15  1  0
  5  3  2  0
  6 12  1  0
  7  3  1  0
  7 19  1  0
  8  1  1  0
 10 13  2  0
 10 16  1  0
 11 17  2  0
 11 18  1  0
 12 18  1  0
 12  9  1  0
 14 13  1  0
 15 14  2  0
 16  6  1  0
 16 11  1  0
 17  8  1  0
 18  1  2  0
M  END
$$$$

     RDKit          3D

 13 14  0  0  0  0  0  0  0  0999 V2000
    8.9680  -34.2800  -33.3840 C   0  0  0  0  0  0  0  0  0  0  0  0
    7.1030  -32.8550  -32.8250 N   0  0  0  0  0  0  0  0  0  0  0  0
    6.6120  -31.2260  -31.7320 C   0  0  0  0  0  0  0  0  0  0  0  0
    9.3650  -35.2850  -34.2510 C   0  0  0  0  0  0  0  0  0  0  0  0
    7.2370  -35.7260  -35.1430 C   0  0  0  0  0  0  0  0  0  0  0  0
    7.6720  -34.0060  -33.4670 C   0  0  0  0  0  0  0  0  0  0  0  0
    6.7710  -34.7350  -34.4370 C   0  0  0  0  0  0  0  0  0  0  0  0
    9.3510  -32.9160  -31.6500 C   0  0  0  0  0  0  0  0  0  0  0  0
    9.8200  -33.8230  -32.4910 C   0  0  0  0  0  0  0  0  0  0  0  0
    8.1140  -32.5090  -31.9270 C   0  0  0  0  0  0  0  0  0  0  0  0
    5.5520  -30.5670  -31.8890 N   0  0  0  0  0  0  0  0  0  0  0  0
    7.4520  -31.7050  -31.0760 N   0  0  0  0  0  0  0  0  0  0  0  0
    8.6630  -35.9260  -34.9770 C   0  0  0  0  0  0  0  0  0  0  0  0
  1  9  1  0
  2 10  2  0
  3 12  1  0
  4  1  2  0
  5 13  2  0
  5  7  1  0
  6  1  1  0
  6  2  1  0
  7  6  2  0
  9  8  2  0
 10  8  1  0
 10 12  1  0
 11  3  2  0
 13  4  1  0
M  END
$$$$

     RDKit          3D

 16 18  0  0  0  0  0  0  0  0999 V2000
    8.5260  -32.0840  -31.2920 N   0  0  0  0  0  0  0  0  0  0  0  0
    3.7480  -32.6550  -33.3590 C   0  0  0  0  0  0  0  0  0  0  0  0
    8.2900  -35.0170  -34.1480 C   0  0  0  0  0  0  0  0  0  0  0  0
    5.8830  -34.0230  -34.1720 C   0  0  0  0  0  0  0  0  0  0  0  0
    9.3140  -34.1220  -34.4000 C   0  0  0  0  0  0  0  0  0  0  0  0
   10.1450  -36.6380  -34.5270 C   0  0  0  0  0  0  0  0  0  0  0  0
    7.3510  -31.3830  -30.8960 C   0  0  0  0  0  0  0  0  0  0  0  0
    7.1710  -34.1440  -33.7710 N   0  0  0  0  0  0  0  0  0  0  0  0
    8.4610  -33.0170  -32.1760 N   0  0  0  0  0  0  0  0  0  0  0  0
    6.1870  -32.6030  -32.5770 C   0  0  0  0  0  0  0  0  0  0  0  0
   10.5940  -34.4100  -33.6950 C   0  0  0  0  0  0  0  0  0  0  0  0
    7.3680  -33.2500  -32.8430 C   0  0  0  0  0  0  0  0  0  0  0  0
    5.2460  -33.0170  -33.3520 C   0  0  0  0  0  0  0  0  0  0  0  0
    8.8570  -36.2380  -34.3640 C   0  0  0  0  0  0  0  0  0  0  0  0
   11.1930  -35.5810  -34.2900 C   0  0  0  0  0  0  0  0  0  0  0  0
    6.1650  -31.6200  -31.5520 C   0  0  0  0  0  0  0  0  0  0  0  0
  1  7  1  0
  2 13  1  0
  3  5  1  0
  3  8  1  0
  4  8  1  0
  4 13  2  0
  5 11  1  0
  6 14  2  0
  6 15  1  0
  8 12  1  0
  9  1  2  0
 10 16  1  0
 12 10  2  0
 12  9  1  0
 13 10  1  0
 14  3  1  0
 15 11  1  0
 16  7  2  0
M  END
$$$$

     RDKit          3D

 37 41  0  0  0  0  0  0  0  0999 V2000
    5.5890  -32.9960  -33.3650 N   0  0  0  0  0  0  0  0  0  0  0  0
    5.0580  -33.8940  -36.7340 O   0  0  0  0  0  0  0  0  0  0  0  0
    2.6110  -31.2580  -31.0910 O   0  0  0  0  0  0  0  0  0  0  0  0
    2.6330  -34.8850  -38.8850 O   0  0  0  0  0  0  0  0  0  0  0  0
   13.4190  -34.4940  -33.0300 C   0  0  0  0  0  0  0  0  0  0  0  0
    9.8610  -33.2240  -31.6960 C   0  0  0  0  0  0  0  0  0  0  0  0
   11.2310  -33.0770  -31.3610 C   0  0  0  0  0  0  0  0  0  0  0  0
    3.9320  -31.4690  -30.5210 N   0  0  0  0  0  0  0  0  0  0  0  0
    9.0430  -34.8740  -33.4490 C   0  0  0  0  0  0  0  0  0  0  0  0
   10.5750  -31.9970  -29.3530 C   0  0  0  0  0  0  0  0  0  0  0  0
   11.2430  -35.7460  -34.0470 C   0  0  0  0  0  0  0  0  0  0  0  0
    3.7220  -34.5470  -38.4030 C   0  0  0  0  0  0  0  0  0  0  0  0
    6.9330  -32.9160  -33.0460 N   0  0  0  0  0  0  0  0  0  0  0  0
    7.2730  -32.4450  -31.8740 C   0  0  0  0  0  0  0  0  0  0  0  0
   10.8310  -31.3690  -28.2490 O   0  0  0  0  0  0  0  0  0  0  0  0
    4.6370  -32.9520  -35.8110 C   0  0  0  0  0  0  0  0  0  0  0  0
    5.0100  -31.8970  -31.5070 C   0  0  0  0  0  0  0  0  0  0  0  0
    3.2560  -32.7150  -32.8770 C   0  0  0  0  0  0  0  0  0  0  0  0
    9.1860  -34.5460  -32.4620 O   0  0  0  0  0  0  0  0  0  0  0  0
   11.5480  -32.6570  -30.0430 C   0  0  0  0  0  0  0  0  0  0  0  0
    4.3460  -35.4540  -35.8660 C   0  0  0  0  0  0  0  0  0  0  0  0
    4.6280  -33.8860  -39.3820 O   0  0  0  0  0  0  0  0  0  0  0  0
    9.3940  -31.8390  -29.9070 C   0  0  0  0  0  0  0  0  0  0  0  0
   14.4480  -34.7400  -33.3260 O   0  0  0  0  0  0  0  0  0  0  0  0
    4.6310  -32.4780  -32.6020 C   0  0  0  0  0  0  0  0  0  0  0  0
    2.0950  -32.1730  -32.0480 C   0  0  0  0  0  0  0  0  0  0  0  0
    5.1830  -33.7510  -34.4640 C   0  0  0  0  0  0  0  0  0  0  0  0
    8.7810  -32.4150  -31.2550 C   0  0  0  0  0  0  0  0  0  0  0  0
    6.3160  -31.8580  -31.1990 C   0  0  0  0  0  0  0  0  0  0  0  0
    4.2850  -34.9020  -37.1900 C   0  0  0  0  0  0  0  0  0  0  0  0
   13.1990  -35.4170  -34.8890 O   0  0  0  0  0  0  0  0  0  0  0  0
    3.7580  -32.5530  -29.4620 C   0  0  0  0  0  0  0  0  0  0  0  0
   10.1520  -35.3800  -34.3380 C   0  0  0  0  0  0  0  0  0  0  0  0
    5.2050  -35.1210  -34.8320 C   0  0  0  0  0  0  0  0  0  0  0  0
   12.3520  -33.6900  -31.9450 C   0  0  0  0  0  0  0  0  0  0  0  0
   13.3450  -33.6870  -31.7480 C   0  0  0  0  0  0  0  0  0  0  0  0
   12.5230  -35.0920  -34.1090 C   0  0  0  0  0  0  0  0  0  0  0  0
  1 13  1  0
  1 25  1  0
  2 16  1  0
  3  8  1  0
  4 12  1  0
  5 36  1  0
  6  7  2  0
  6 28  1  0
  7 20  1  0
  8 32  1  0
  9 19  1  0
 10 15  1  0
 13 14  1  0
 14 28  1  0
 14 29  2  0
 17 29  1  0
 17  8  1  0
 18 25  1  0
 18 26  1  0
 19  6  1  0
 20 10  2  0
 21 34  1  0
 22 12  2  0
 23 10  1  0
 24  5  2  0
 25 17  2  0
 26  3  1  0
 27 16  1  0
 27  1  1  0
 28 23  2  0
 30 12  1  0
 30  2  1  0
 30 21  1  0
 31 37  2  0
 33 11  1  0
 33  9  1  0
 34 27  1  0
 35 36  1  0
 35  7  1  0
 37 11  1  0
 37  5  1  0
M  END
$$$$

     RDKit          3D

 26 29  0  0  0  0  0  0  0  0999 V2000
    6.0120  -34.8910  -34.9420 C   0  0  0  0  0  0  0  0  0  0  0  0
    9.9150  -34.0260  -32.0900 C   0  0  0  0  0  0  0  0  0  0  0  0
    2.8300  -35.8200  -36.6980 N   0  0  0  0  0  0  0  0  0  0  0  0
    4.2400  -33.4880  -34.2560 C   0  0  0  0  0  0  0  0  0  0  0  0
    3.7910  -35.0670  -35.9470 C   0  0  0  0  0  0  0  0  0  0  0  0
    7.9290  -34.4620  -33.5730 C   0  0  0  0  0  0  0  0  0  0  0  0
    7.7370  -31.6690  -30.9510 C   0  0  0  0  0  0  0  0  0  0  0  0
   11.3260  -34.0230  -32.2520 C   0  0  0  0  0  0  0  0  0  0  0  0
    9.3800  -36.5540  -34.7970 C   0  0  0  0  0  0  0  0  0  0  0  0
   11.1350  -32.1520  -28.8950 C   0  0  0  0  0  0  0  0  0  0  0  0
    7.2880  -35.3590  -34.4960 C   0  0  0  0  0  0  0  0  0  0  0  0
   12.0580  -34.4050  -33.3420 C   0  0  0  0  0  0  0  0  0  0  0  0
    5.5210  -33.8860  -34.1630 N   0  0  0  0  0  0  0  0  0  0  0  0
    5.1790  -35.4610  -35.9330 C   0  0  0  0  0  0  0  0  0  0  0  0
   11.6130  -33.6080  -31.1150 N   0  0  0  0  0  0  0  0  0  0  0  0
    9.2980  -34.6240  -33.3060 C   0  0  0  0  0  0  0  0  0  0  0  0
    8.7890  -31.4350  -29.8330 C   0  0  0  0  0  0  0  0  0  0  0  0
   11.4040  -30.9830  -28.6700 O   0  0  0  0  0  0  0  0  0  0  0  0
   10.1000  -33.2250  -30.9090 C   0  0  0  0  0  0  0  0  0  0  0  0
   11.4420  -35.2880  -34.2250 C   0  0  0  0  0  0  0  0  0  0  0  0
    9.9900  -32.3480  -29.9210 C   0  0  0  0  0  0  0  0  0  0  0  0
   10.0530  -35.4490  -34.0900 C   0  0  0  0  0  0  0  0  0  0  0  0
    3.7080  -32.2060  -33.3040 Cl  0  0  0  0  0  0  0  0  0  0  0  0
   11.7370  -33.0960  -28.4310 O   0  0  0  0  0  0  0  0  0  0  0  0
    8.0150  -36.4130  -34.8990 C   0  0  0  0  0  0  0  0  0  0  0  0
    3.3030  -34.0520  -35.1380 N   0  0  0  0  0  0  0  0  0  0  0  0
  1 11  1  0
  1 13  1  0
  2 19  1  0
  3  5  1  0
  4 13  2  0
  4 23  1  0
  5 14  1  0
  5 26  2  0
  6 16  1  0
  7 17  1  0
  8  2  1  0
  8 15  1  0
  9 22  1  0
 10 18  2  0
 10 24  1  0
 11  6  2  0
 12  8  2  0
 14  1  2  0
 15 19  1  0
 16  2  2  0
 19 21  1  0
 20 22  2  0
 20 12  1  0
 21 17  1  0
 21 10  1  0
 22 16  1  0
 25  9  1  0
 25 11  1  0
 26  4  1  0
M  END
$$$$

     RDKit          3D

 18 19  0  0  0  0  0  0  0  0999 V2000
   10.7680  -33.5660  -30.8770 C   0  0  0  0  0  0  0  0  0  0  0  0
    9.8800  -33.3520  -32.8310 C   0  0  0  0  0  0  0  0  0  0  0  0
    9.4200  -33.2130  -31.7230 C   0  0  0  0  0  0  0  0  0  0  0  0
    4.1300  -34.1510  -34.7530 C   0  0  0  0  0  0  0  0  0  0  0  0
   11.4870  -35.4000  -34.7640 F   0  0  0  0  0  0  0  0  0  0  0  0
    6.0680  -31.4910  -31.4580 C   0  0  0  0  0  0  0  0  0  0  0  0
   10.0800  -34.4180  -33.8490 C   0  0  0  0  0  0  0  0  0  0  0  0
   13.4640  -33.9850  -33.2790 O   0  0  0  0  0  0  0  0  0  0  0  0
    5.2260  -33.5390  -34.2280 N   0  0  0  0  0  0  0  0  0  0  0  0
   12.2440  -34.0340  -32.7760 C   0  0  0  0  0  0  0  0  0  0  0  0
    7.2650  -33.4100  -33.0460 C   0  0  0  0  0  0  0  0  0  0  0  0
    8.0250  -32.9510  -32.0190 C   0  0  0  0  0  0  0  0  0  0  0  0
    8.1720  -31.1840  -29.9460 O   0  0  0  0  0  0  0  0  0  0  0  0
    5.9210  -33.0120  -33.3020 C   0  0  0  0  0  0  0  0  0  0  0  0
    7.4560  -31.8310  -31.1300 C   0  0  0  0  0  0  0  0  0  0  0  0
    5.4110  -32.1170  -32.4660 N   0  0  0  0  0  0  0  0  0  0  0  0
   11.9470  -33.6430  -31.4860 C   0  0  0  0  0  0  0  0  0  0  0  0
   11.1050  -34.6000  -33.6130 C   0  0  0  0  0  0  0  0  0  0  0  0
  2  3  1  0
  3  1  2  0
  4  9  3  0
  6 15  1  0
  7 18  1  0
  7  2  1  0
  8 10  1  0
  9 14  1  0
 10 17  2  0
 11 12  1  0
 12  3  1  0
 12 15  2  0
 14 11  2  0
 14 16  1  0
 15 13  1  0
 16  6  2  0
 17  1  1  0
 18  5  1  0
 18 10  1  0
M  END
$$$$

     RDKit          3D

 12 12  0  0  0  0  0  0  0  0999 V2000
   11.4620  -35.0190  -33.9020 C   0  0  0  0  0  0  0  0  0  0  0  0
   11.1760  -33.8560  -33.1910 C   0  0  0  0  0  0  0  0  0  0  0  0
    6.7630  -32.5530  -33.1140 C   0  0  0  0  0  0  0  0  0  0  0  0
    9.5480  -35.5090  -33.9130 C   0  0  0  0  0  0  0  0  0  0  0  0
    9.7080  -33.5180  -33.0800 C   0  0  0  0  0  0  0  0  0  0  0  0
    7.1630  -35.3230  -35.2820 C   0  0  0  0  0  0  0  0  0  0  0  0
    7.5310  -34.3520  -34.2590 C   0  0  0  0  0  0  0  0  0  0  0  0
    6.9400  -31.8890  -31.8750 C   0  0  0  0  0  0  0  0  0  0  0  0
   10.7700  -35.8120  -34.1050 C   0  0  0  0  0  0  0  0  0  0  0  0
    6.4740  -36.3050  -34.5660 F   0  0  0  0  0  0  0  0  0  0  0  0
    6.5560  -33.7550  -33.3270 C   0  0  0  0  0  0  0  0  0  0  0  0
    8.9490  -34.3390  -33.5990 C   0  0  0  0  0  0  0  0  0  0  0  0
  1  2  1  0
  2  5  1  0
  3  8  1  0
  4 12  1  0
  6 10  1  0
  7  6  1  0
  7 12  1  0
  7 11  1  0
  9  4  1  0
  9  1  1  0
 11  3  1  0
 12  5  1  0
M  END
$$$$

     RDKit          3D

 20 23  0  0  0  0  0  0  0  0999 V2000
    3.7900  -33.5880  -36.3270 C   0  0  0  0  0  0  0  0  0  0  0  0
    7.0480  -31.1320  -31.3960 C   0  0  0  0  0  0  0  0  0  0  0  0
    9.4900  -33.4290  -31.9460 C   0  0  0  0  0  0  0  0  0  0  0  0
    9.5320  -34.7360  -33.8090 C   0  0  0  0  0  0  0  0  0  0  0  0
    8.2630  -34.6080  -34.0740 N   0  0  0  0  0  0  0  0  0  0  0  0
   11.6150  -34.0380  -32.7830 C   0  0  0  0  0  0  0  0  0  0  0  0
    5.5680  -34.3190  -34.5950 C   0  0  0  0  0  0  0  0  0  0  0  0
    7.5690  -32.3970  -31.2710 O   0  0  0  0  0  0  0  0  0  0  0  0
   10.2310  -35.8310  -34.6660 C   0  0  0  0  0  0  0  0  0  0  0  0
   11.3180  -33.3310  -30.4560 C   0  0  0  0  0  0  0  0  0  0  0  0
   10.0650  -33.0080  -30.7760 C   0  0  0  0  0  0  0  0  0  0  0  0
    4.3770  -32.2160  -32.8210 O   0  0  0  0  0  0  0  0  0  0  0  0
    6.1330  -33.3990  -33.5750 C   0  0  0  0  0  0  0  0  0  0  0  0
   12.1620  -33.6160  -31.6250 C   0  0  0  0  0  0  0  0  0  0  0  0
   10.2340  -34.0890  -32.8590 C   0  0  0  0  0  0  0  0  0  0  0  0
    8.2250  -33.1400  -32.1750 N   0  0  0  0  0  0  0  0  0  0  0  0
    4.7750  -32.9830  -33.8330 C   0  0  0  0  0  0  0  0  0  0  0  0
    5.6430  -35.2130  -35.4180 C   0  0  0  0  0  0  0  0  0  0  0  0
    4.0670  -33.3200  -35.0420 N   0  0  0  0  0  0  0  0  0  0  0  0
    7.6390  -33.6730  -33.2430 C   0  0  0  0  0  0  0  0  0  0  0  0
  1 19  1  0
  2  8  1  0
  3 11  2  0
  4 15  2  0
  5  4  1  0
  5 20  2  0
  6 14  2  0
  7 18  1  0
  7 17  1  0
  7 13  1  0
  9  4  1  0
 11 10  1  0
 13 20  1  0
 14 10  1  0
 15  6  1  0
 15  3  1  0
 16  3  1  0
 16  8  1  0
 17 13  1  0
 17 12  1  0
 19  7  1  0
 19 17  1  0
 20 16  1  0
M  END
$$$$

     RDKit          3D

 10 11  0  0  0  0  0  0  0  0999 V2000
    8.9480  -33.9950  -32.7260 C   0  0  0  0  0  0  0  0  0  0  0  0
    5.8720  -32.0920  -33.0170 O   0  0  0  0  0  0  0  0  0  0  0  0
    6.4680  -34.1160  -34.2850 S   0  0  0  0  0  0  0  0  0  0  0  0
    5.3470  -32.9720  -33.8550 C   0  0  0  0  0  0  0  0  0  0  0  0
   10.1830  -32.9860  -30.7530 O   0  0  0  0  0  0  0  0  0  0  0  0
    7.6030  -33.6010  -33.1640 C   0  0  0  0  0  0  0  0  0  0  0  0
    9.1460  -32.9740  -31.6250 C   0  0  0  0  0  0  0  0  0  0  0  0
    8.0680  -32.0820  -31.5410 N   0  0  0  0  0  0  0  0  0  0  0  0
    7.1020  -32.4390  -32.4620 C   0  0  0  0  0  0  0  0  0  0  0  0
    9.5900  -35.2060  -33.6830 Cl  0  0  0  0  0  0  0  0  0  0  0  0
  1  7  1  0
  2  9  1  0
  3  4  1  0
  3  6  1  0
  4  2  1  0
  6  1  2  0
  6  9  1  0
  7  8  1  0
  7  5  2  0
  9  8  2  0
 10  1  1  0
M  END
$$$$

     RDKit          3D

 10 10  0  0  0  0  0  0  0  0999 V2000
    8.5330  -35.2330  -34.4170 C   0  0  0  0  0  0  0  0  0  0  0  0
    7.4890  -34.4830  -33.7660 C   0  0  0  0  0  0  0  0  0  0  0  0
    8.2330  -33.4580  -33.0340 C   0  0  0  0  0  0  0  0  0  0  0  0
    6.8510  -31.7270  -30.5120 O   0  0  0  0  0  0  0  0  0  0  0  0
    9.4740  -33.8840  -32.6530 C   0  0  0  0  0  0  0  0  0  0  0  0
    7.8540  -32.2030  -32.7320 N   0  0  0  0  0  0  0  0  0  0  0  0
   10.0700  -35.0510  -33.6550 S   0  0  0  0  0  0  0  0  0  0  0  0
    5.5850  -32.2520  -32.3310 O   0  0  0  0  0  0  0  0  0  0  0  0
    6.8810  -31.6300  -32.0160 C   0  0  0  0  0  0  0  0  0  0  0  0
   10.3070  -33.3860  -31.4910 C   0  0  0  0  0  0  0  0  0  0  0  0
  1  2  1  0
  1  7  1  0
  2  3  1  0
  3  6  1  0
  3  5  1  0
  5 10  1  0
  6  9  1  0
  7  5  1  0
  8  9  1  0
  9  4  1  0
M  END
$$$$

     RDKit          3D

 24 28  0  0  0  0  0  0  0  0999 V2000
   10.2450  -33.5190  -31.6730 C   0  0  0  0  0  0  0  0  0  0  0  0
    7.8850  -33.1190  -32.2860 C   0  0  0  0  0  0  0  0  0  0  0  0
    6.5510  -31.4920  -31.1630 C   0  0  0  0  0  0  0  0  0  0  0  0
    3.1490  -33.4510  -34.8010 C   0  0  0  0  0  0  0  0  0  0  0  0
    4.7190  -32.0470  -32.1660 C   0  0  0  0  0  0  0  0  0  0  0  0
   11.3290  -32.6930  -29.5170 C   0  0  0  0  0  0  0  0  0  0  0  0
   10.1360  -34.9340  -33.8930 C   0  0  0  0  0  0  0  0  0  0  0  0
    7.6620  -33.9050  -33.4550 N   0  0  0  0  0  0  0  0  0  0  0  0
    5.2590  -31.2380  -31.2290 N   0  0  0  0  0  0  0  0  0  0  0  0
    2.6470  -32.3960  -34.1710 C   0  0  0  0  0  0  0  0  0  0  0  0
   10.6390  -34.3140  -32.8250 C   0  0  0  0  0  0  0  0  0  0  0  0
    8.9650  -33.0870  -31.4130 C   0  0  0  0  0  0  0  0  0  0  0  0
   12.3430  -34.7650  -34.1020 C   0  0  0  0  0  0  0  0  0  0  0  0
    2.9560  -31.9070  -32.4990 S   0  0  0  0  0  0  0  0  0  0  0  0
   11.1600  -35.2900  -34.7400 O   0  0  0  0  0  0  0  0  0  0  0  0
   12.0120  -34.1200  -32.8940 C   0  0  0  0  0  0  0  0  0  0  0  0
    6.3280  -33.6030  -33.6930 C   0  0  0  0  0  0  0  0  0  0  0  0
    5.9750  -35.4560  -35.2460 C   0  0  0  0  0  0  0  0  0  0  0  0
    6.7530  -32.4510  -32.0120 N   0  0  0  0  0  0  0  0  0  0  0  0
    5.7340  -32.7970  -32.6780 N   0  0  0  0  0  0  0  0  0  0  0  0
   12.4190  -33.5960  -31.6560 C   0  0  0  0  0  0  0  0  0  0  0  0
    4.3900  -33.6810  -35.1880 C   0  0  0  0  0  0  0  0  0  0  0  0
   11.3390  -33.2540  -30.8850 C   0  0  0  0  0  0  0  0  0  0  0  0
    5.6000  -34.0830  -35.0020 C   0  0  0  0  0  0  0  0  0  0  0  0
  1 12  1  0
  1 23  2  0
  2 19  1  0
  2 12  1  0
  4 10  1  0
  5  9  2  0
  7 11  2  0
  8  2  1  0
  9  3  1  0
 10 14  1  0
 11  1  1  0
 13 16  2  0
 14  5  1  0
 15 13  1  0
 15  7  1  0
 16 11  1  0
 16 21  1  0
 17  8  1  0
 17 20  1  0
 19  3  1  0
 20  5  1  0
 20 19  1  0
 21 23  1  0
 22 24  1  0
 22  4  1  0
 23  6  1  0
 24 18  1  0
 24 17  1  0
M  END
$$$$

     RDKit          3D

 27 31  0  0  0  0  0  0  0  0999 V2000
    3.5900  -35.6450  -36.9970 C   0  0  0  0  0  0  0  0  0  0  0  0
    7.6290  -34.9960  -34.9240 N   0  0  0  0  0  0  0  0  0  0  0  0
    2.3850  -35.4740  -37.5920 N   0  0  0  0  0  0  0  0  0  0  0  0
   10.9550  -33.4210  -31.8750 N   0  0  0  0  0  0  0  0  0  0  0  0
   12.4210  -33.6080  -30.0960 C   0  0  0  0  0  0  0  0  0  0  0  0
    6.0050  -31.6660  -31.5050 C   0  0  0  0  0  0  0  0  0  0  0  0
    4.9890  -34.1400  -34.1650 N   0  0  0  0  0  0  0  0  0  0  0  0
   12.3470  -33.5120  -33.6080 O   0  0  0  0  0  0  0  0  0  0  0  0
    8.2620  -31.8440  -30.8630 C   0  0  0  0  0  0  0  0  0  0  0  0
    9.2980  -34.4340  -33.4750 C   0  0  0  0  0  0  0  0  0  0  0  0
    7.0320  -31.3780  -30.6230 C   0  0  0  0  0  0  0  0  0  0  0  0
    6.4690  -35.1830  -35.7340 C   0  0  0  0  0  0  0  0  0  0  0  0
    9.7270  -35.4160  -34.3070 N   0  0  0  0  0  0  0  0  0  0  0  0
    3.8010  -34.9450  -35.8910 C   0  0  0  0  0  0  0  0  0  0  0  0
    8.7490  -35.5870  -35.2490 C   0  0  0  0  0  0  0  0  0  0  0  0
    8.5740  -32.7660  -31.9850 C   0  0  0  0  0  0  0  0  0  0  0  0
   13.1730  -33.6710  -31.5920 N   0  0  0  0  0  0  0  0  0  0  0  0
    2.7180  -33.9260  -36.0410 C   0  0  0  0  0  0  0  0  0  0  0  0
    7.9790  -34.1730  -33.7620 C   0  0  0  0  0  0  0  0  0  0  0  0
    1.9460  -34.3190  -37.0430 N   0  0  0  0  0  0  0  0  0  0  0  0
    7.4880  -33.1300  -32.7400 C   0  0  0  0  0  0  0  0  0  0  0  0
   12.0520  -32.7310  -28.8320 C   0  0  0  0  0  0  0  0  0  0  0  0
    6.2470  -32.4930  -32.5380 C   0  0  0  0  0  0  0  0  0  0  0  0
    5.0190  -34.7000  -35.1700 C   0  0  0  0  0  0  0  0  0  0  0  0
    9.6540  -33.5710  -32.4600 C   0  0  0  0  0  0  0  0  0  0  0  0
   10.9430  -33.7810  -30.4870 C   0  0  0  0  0  0  0  0  0  0  0  0
   12.0650  -33.7340  -32.2970 C   0  0  0  0  0  0  0  0  0  0  0  0
  1 14  1  0
  2 19  1  0
  3 20  1  0
  3  1  1  0
  4 26  1  0
  5 22  1  0
  6 11  1  0
  8 27  2  0
  9 11  2  0
 10 25  1  0
 12 24  1  0
 12  2  1  0
 13 10  1  0
 14 24  1  0
 15  2  1  0
 15 13  1  0
 16  9  1  0
 17  5  1  0
 18 14  1  0
 19 10  2  0
 19 21  1  0
 20 18  1  0
 21 23  1  0
 21 16  2  0
 23  6  2  0
 24  7  2  0
 25 16  1  0
 25  4  1  0
 26  5  1  0
 27  4  1  0
 27 17  1  0
M  END
$$$$

     RDKit          3D

 13 13  0  0  0  0  0  0  0  0999 V2000
    7.1460  -33.7860  -33.5840 C   0  0  0  0  0  0  0  0  0  0  0  0
    4.0690  -34.0330  -34.0560 N   0  0  0  0  0  0  0  0  0  0  0  0
   10.5760  -35.2420  -34.0520 C   0  0  0  0  0  0  0  0  0  0  0  0
   11.3710  -34.3930  -33.4640 C   0  0  0  0  0  0  0  0  0  0  0  0
    6.3770  -34.5130  -34.2750 N   0  0  0  0  0  0  0  0  0  0  0  0
    5.0790  -34.5090  -34.6610 C   0  0  0  0  0  0  0  0  0  0  0  0
    4.8560  -35.2060  -35.8010 N   0  0  0  0  0  0  0  0  0  0  0  0
    8.6300  -33.9460  -33.5170 C   0  0  0  0  0  0  0  0  0  0  0  0
    6.0580  -31.9600  -32.0900 N   0  0  0  0  0  0  0  0  0  0  0  0
    9.1930  -35.0670  -34.0950 C   0  0  0  0  0  0  0  0  0  0  0  0
    6.6510  -32.6860  -32.6960 C   0  0  0  0  0  0  0  0  0  0  0  0
   10.8110  -33.1610  -32.9880 C   0  0  0  0  0  0  0  0  0  0  0  0
    9.4280  -33.0000  -33.0150 C   0  0  0  0  0  0  0  0  0  0  0  0
  1  8  1  0
  1 11  1  0
  3  4  1  0
  4 12  2  0
  5  1  1  0
  6  5  2  3
  6  2  1  0
  7  6  1  0
  8 13  2  0
 10  3  2  0
 10  8  1  0
 11  9  3  0
 13 12  1  0
M  END
$$$$

     RDKit          3D

 11 11  0  0  0  0  0  0  0  0999 V2000
   10.2530  -34.0900  -32.0080 C   0  0  0  0  0  0  0  0  0  0  0  0
    7.9940  -33.4500  -33.1390 C   0  0  0  0  0  0  0  0  0  0  0  0
    8.6390  -35.5730  -33.5860 C   0  0  0  0  0  0  0  0  0  0  0  0
    5.5910  -32.7650  -33.4590 C   0  0  0  0  0  0  0  0  0  0  0  0
    9.5120  -35.6380  -34.8730 C   0  0  0  0  0  0  0  0  0  0  0  0
   11.2940  -33.4570  -32.8490 C   0  0  0  0  0  0  0  0  0  0  0  0
    5.6110  -34.5500  -34.6400 C   0  0  0  0  0  0  0  0  0  0  0  0
    9.9230  -33.1840  -30.7580 C   0  0  0  0  0  0  0  0  0  0  0  0
    6.6540  -33.9590  -33.6930 C   0  0  0  0  0  0  0  0  0  0  0  0
    4.4770  -33.5320  -34.1210 C   0  0  0  0  0  0  0  0  0  0  0  0
    8.8450  -34.3160  -32.8610 C   0  0  0  0  0  0  0  0  0  0  0  0
  1  8  1  0
  2 11  1  0
  5  3  1  0
  6  1  1  0
  7 10  1  0
  7  9  1  0
  9  4  1  0
  9  2  1  0
 10  4  1  0
 11  3  1  0
 11  1  1  0
M  END
$$$$

     RDKit          3D

 14 15  0  0  0  0  0  0  0  0999 V2000
    9.2370  -33.3780  -31.9130 N   0  0  0  0  0  0  0  0  0  0  0  0
    9.3030  -32.5630  -30.8500 C   0  0  0  0  0  0  0  0  0  0  0  0
    8.0000  -33.5710  -32.7370 C   0  0  0  0  0  0  0  0  0  0  0  0
    7.0240  -32.4860  -32.7950 C   0  0  0  0  0  0  0  0  0  0  0  0
    9.6810  -35.9800  -34.9820 C   0  0  0  0  0  0  0  0  0  0  0  0
    6.7180  -34.7160  -34.3330 N   0  0  0  0  0  0  0  0  0  0  0  0
    9.4000  -37.1030  -34.0800 C   0  0  0  0  0  0  0  0  0  0  0  0
    8.9250  -35.7220  -33.6460 C   0  0  0  0  0  0  0  0  0  0  0  0
    8.4240  -31.7120  -30.5790 O   0  0  0  0  0  0  0  0  0  0  0  0
    5.6990  -33.8100  -34.3420 C   0  0  0  0  0  0  0  0  0  0  0  0
    5.8670  -32.7060  -33.5380 C   0  0  0  0  0  0  0  0  0  0  0  0
   11.2500  -35.5830  -34.8550 C   0  0  0  0  0  0  0  0  0  0  0  0
   10.5530  -32.6550  -30.0050 C   0  0  0  0  0  0  0  0  0  0  0  0
    7.9030  -34.6420  -33.6390 C   0  0  0  0  0  0  0  0  0  0  0  0
  1  2  1  0
  2  9  2  0
  2 13  1  0
  3  1  1  0
  4  3  1  0
  5 12  1  0
  5  7  1  0
  5  8  1  0
  6 14  1  0
  7  8  1  0
  8 14  1  0
 10  6  2  0
 10 11  1  0
 11  4  2  0
 14  3  2  0
M  END
$$$$

     RDKit          3D

  9  9  0  0  0  0  0  0  0  0999 V2000
    6.9730  -32.0890  -32.5480 C   0  0  0  0  0  0  0  0  0  0  0  0
    7.9090  -33.1180  -32.8550 C   0  0  0  0  0  0  0  0  0  0  0  0
    9.4720  -34.9950  -33.6200 C   0  0  0  0  0  0  0  0  0  0  0  0
    9.1640  -33.0530  -32.3520 C   0  0  0  0  0  0  0  0  0  0  0  0
    8.0410  -35.1000  -34.0290 C   0  0  0  0  0  0  0  0  0  0  0  0
    5.9740  -33.6820  -33.9070 O   0  0  0  0  0  0  0  0  0  0  0  0
    9.9730  -34.1230  -32.8110 C   0  0  0  0  0  0  0  0  0  0  0  0
    7.2320  -34.0590  -33.5820 C   0  0  0  0  0  0  0  0  0  0  0  0
    6.5220  -31.2150  -31.7090 N   0  0  0  0  0  0  0  0  0  0  0  0
  1  9  2  0
  2  1  1  0
  2  4  1  0
  3  7  1  0
  5  3  2  0
  5  8  1  0
  6  8  1  0
  7  4  2  0
  8  2  2  0
M  END
$$$$

     RDKit          3D

 25 28  0  0  0  0  0  0  0  0999 V2000
    5.8110  -35.0870  -36.3100 C   0  0  0  0  0  0  0  0  0  0  0  0
    8.0720  -33.5280  -33.4930 C   0  0  0  0  0  0  0  0  0  0  0  0
    3.5610  -31.2580  -30.3930 F   0  0  0  0  0  0  0  0  0  0  0  0
    9.6110  -33.3570  -31.6820 C   0  0  0  0  0  0  0  0  0  0  0  0
   11.0910  -33.1230  -31.4270 C   0  0  0  0  0  0  0  0  0  0  0  0
    4.1470  -31.7930  -31.4260 C   0  0  0  0  0  0  0  0  0  0  0  0
    5.1990  -34.1510  -35.4160 O   0  0  0  0  0  0  0  0  0  0  0  0
    9.9780  -35.0140  -33.8290 C   0  0  0  0  0  0  0  0  0  0  0  0
   11.3310  -32.4860  -30.4220 O   0  0  0  0  0  0  0  0  0  0  0  0
    5.5410  -31.8500  -31.4430 C   0  0  0  0  0  0  0  0  0  0  0  0
   11.2940  -35.5560  -34.0640 C   0  0  0  0  0  0  0  0  0  0  0  0
    9.6130  -33.6630  -33.2520 C   0  0  0  0  0  0  0  0  0  0  0  0
    6.1530  -32.4800  -32.4470 C   0  0  0  0  0  0  0  0  0  0  0  0
    7.5390  -32.7470  -32.5460 C   0  0  0  0  0  0  0  0  0  0  0  0
   11.4320  -36.7790  -34.3530 C   0  0  0  0  0  0  0  0  0  0  0  0
    5.9550  -33.7970  -34.4590 C   0  0  0  0  0  0  0  0  0  0  0  0
    5.3380  -33.1210  -33.4110 C   0  0  0  0  0  0  0  0  0  0  0  0
    7.3090  -34.0820  -34.3970 N   0  0  0  0  0  0  0  0  0  0  0  0
    8.5720  -32.3160  -31.4710 C   0  0  0  0  0  0  0  0  0  0  0  0
    3.9510  -32.8860  -33.4770 C   0  0  0  0  0  0  0  0  0  0  0  0
   11.9300  -33.8480  -31.8920 O   0  0  0  0  0  0  0  0  0  0  0  0
    8.9410  -35.9710  -33.8900 C   0  0  0  0  0  0  0  0  0  0  0  0
    9.1480  -37.2460  -34.2820 N   0  0  0  0  0  0  0  0  0  0  0  0
    3.2930  -32.3210  -32.4550 C   0  0  0  0  0  0  0  0  0  0  0  0
   10.3460  -37.6710  -34.5060 C   0  0  0  0  0  0  0  0  0  0  0  0
  1  7  1  0
  2 12  1  0
  2 14  2  0
  4 19  1  0
  4  5  1  0
  5  9  1  0
  6  3  1  0
  7 16  1  0
 10  6  1  0
 11  8  2  0
 12  8  1  0
 12  4  1  0
 13 10  2  0
 14 13  1  0
 14 19  1  0
 15 11  1  0
 16 18  2  0
 16 17  1  0
 17 13  1  0
 18  2  1  0
 20 17  2  0
 20 24  1  0
 21  5  2  0
 22  8  1  0
 23 22  2  0
 24  6  2  0
 25 15  2  0
 25 23  1  0
M  END
$$$$

     RDKit          3D

 11 11  0  0  0  0  0  0  0  0999 V2000
    5.9910  -31.8010  -31.7290 C   0  0  0  0  0  0  0  0  0  0  0  0
    7.6810  -32.9110  -32.9890 C   0  0  0  0  0  0  0  0  0  0  0  0
    6.7480  -31.8650  -32.9710 O   0  0  0  0  0  0  0  0  0  0  0  0
    9.9260  -33.8930  -32.8730 C   0  0  0  0  0  0  0  0  0  0  0  0
   11.5510  -33.8300  -32.8100 Cl  0  0  0  0  0  0  0  0  0  0  0  0
    7.2540  -34.0830  -33.6070 C   0  0  0  0  0  0  0  0  0  0  0  0
    7.5240  -36.5780  -34.5030 Cl  0  0  0  0  0  0  0  0  0  0  0  0
    5.9270  -34.1640  -33.9870 O   0  0  0  0  0  0  0  0  0  0  0  0
    8.0870  -35.2150  -33.7360 C   0  0  0  0  0  0  0  0  0  0  0  0
    9.0260  -32.7570  -32.6650 C   0  0  0  0  0  0  0  0  0  0  0  0
    9.4180  -35.1280  -33.3850 C   0  0  0  0  0  0  0  0  0  0  0  0
  2  3  1  0
  2 10  1  0
  3  1  1  0
  4  5  1  0
  4 10  2  0
  6  2  2  0
  7  9  1  0
  8  6  1  0
  9  6  1  0
  9 11  2  0
 11  4  1  0
M  END
$$$$

     RDKit          3D

 29 31  0  0  0  0  0  0  0  0999 V2000
   11.4060  -32.6240  -31.0420 C   0  0  0  0  0  0  0  0  0  0  0  0
    5.2730  -33.6070  -33.7580 C   0  0  0  0  0  0  0  0  0  0  0  0
    9.4060  -34.3870  -33.7690 C   0  0  0  0  0  0  0  0  0  0  0  0
   11.2110  -31.9450  -29.8670 O   0  0  0  0  0  0  0  0  0  0  0  0
    8.2150  -32.2540  -32.1730 O   0  0  0  0  0  0  0  0  0  0  0  0
    7.5700  -33.1600  -32.6260 C   0  0  0  0  0  0  0  0  0  0  0  0
   10.0090  -35.4400  -35.4780 C   0  0  0  0  0  0  0  0  0  0  0  0
   12.7050  -32.6260  -31.5560 C   0  0  0  0  0  0  0  0  0  0  0  0
    3.3600  -31.4380  -31.8070 O   0  0  0  0  0  0  0  0  0  0  0  0
    3.1760  -33.8720  -35.4370 C   0  0  0  0  0  0  0  0  0  0  0  0
   10.4870  -33.7930  -33.0260 C   0  0  0  0  0  0  0  0  0  0  0  0
   11.6100  -32.4350  -28.6680 C   0  0  0  0  0  0  0  0  0  0  0  0
   10.3600  -33.2270  -31.6710 C   0  0  0  0  0  0  0  0  0  0  0  0
    4.2000  -34.7990  -35.4660 C   0  0  0  0  0  0  0  0  0  0  0  0
    5.3220  -34.5220  -34.6950 C   0  0  0  0  0  0  0  0  0  0  0  0
    2.3650  -33.7850  -36.6060 N   0  0  0  0  0  0  0  0  0  0  0  0
   11.2920  -35.8700  -36.0220 C   0  0  0  0  0  0  0  0  0  0  0  0
    3.0480  -32.9690  -34.3280 C   0  0  0  0  0  0  0  0  0  0  0  0
    8.8670  -35.0710  -36.1470 O   0  0  0  0  0  0  0  0  0  0  0  0
    4.0900  -32.8400  -33.5220 C   0  0  0  0  0  0  0  0  0  0  0  0
   12.8690  -33.1760  -32.7890 C   0  0  0  0  0  0  0  0  0  0  0  0
   11.8230  -33.7190  -33.5290 C   0  0  0  0  0  0  0  0  0  0  0  0
    4.2610  -32.0990  -32.3570 C   0  0  0  0  0  0  0  0  0  0  0  0
    6.1770  -33.0890  -32.8640 N   0  0  0  0  0  0  0  0  0  0  0  0
    9.1760  -36.8900  -33.8170 O   0  0  0  0  0  0  0  0  0  0  0  0
   12.0920  -36.1640  -34.9200 N   0  0  0  0  0  0  0  0  0  0  0  0
    5.5290  -32.1000  -31.9990 N   0  0  0  0  0  0  0  0  0  0  0  0
    8.1340  -34.5080  -32.9900 C   0  0  0  0  0  0  0  0  0  0  0  0
    9.6290  -35.8390  -34.2490 C   0  0  0  0  0  0  0  0  0  0  0  0
  1  4  1  0
  2 20  1  0
  2 24  1  0
  3 11  1  0
  3 28  1  0
  4 12  1  0
  6  5  2  0
  7 19  1  0
  7 29  1  0
  8  1  1  0
 10 18  1  0
 11 13  1  0
 13  1  2  0
 14 10  2  0
 14 15  1  0
 15  2  2  0
 16 10  1  0
 17  7  1  0
 17 26  1  0
 18 20  2  0
 20 23  1  0
 21  8  2  0
 22 11  2  0
 22 21  1  0
 23 27  1  0
 23  9  2  0
 24  6  1  0
 24 27  1  0
 28  6  1  0
 29 25  2  0
 29  3  1  0
M  END
$$$$
