
     RDKit          3D

 26 26  0  0  0  0  0  0  0  0999 V2000
   -4.1450    0.9818    0.8237 C   0  0  0  0  0  0  0  0  0  0  0  0
   -2.6957    0.7702    0.5710 C   0  0  0  0  0  0  0  0  0  0  0  0
   -1.7878    1.7053    0.8016 N   0  0  0  0  0  0  0  0  0  0  0  0
   -0.4651    1.5172    0.5728 C   0  0  0  0  0  0  0  0  0  0  0  0
   -0.0062    0.3262    0.0833 C   0  0  0  0  0  0  0  0  0  0  0  0
    1.4310    0.0535   -0.1901 C   0  0  0  0  0  0  0  0  0  0  0  0
    2.2260    1.1533    0.1142 O   0  0  0  0  0  0  0  0  0  0  0  0
    3.8444    0.8087   -0.2075 P   0  0  0  0  0  5  0  0  0  0  0  0
    4.5779    2.0538   -0.6580 O   0  0  0  0  0  0  0  0  0  0  0  0
    4.6013    0.0924    1.1276 O   0  0  0  0  0  0  0  0  0  0  0  0
    3.9066   -0.3050   -1.4855 O   0  0  0  0  0  0  0  0  0  0  0  0
   -0.9021   -0.7061   -0.1842 C   0  0  0  0  0  0  0  0  0  0  0  0
   -0.4061   -1.9762   -0.7069 C   0  0  0  0  0  0  0  0  0  0  0  0
   -1.1481   -2.9300   -0.9645 O   0  0  0  0  0  0  0  0  0  0  0  0
   -2.2405   -0.4640    0.0662 C   0  0  0  0  0  0  0  0  0  0  0  0
   -3.1963   -1.4055   -0.1610 O   0  0  0  0  0  0  0  0  0  0  0  0
   -4.3103    1.7260    1.6078 H   0  0  0  0  0  0  0  0  0  0  0  0
   -4.5760    1.3873   -0.1343 H   0  0  0  0  0  0  0  0  0  0  0  0
   -4.6281    0.0024    1.0113 H   0  0  0  0  0  0  0  0  0  0  0  0
    0.2489    2.3135    0.7764 H   0  0  0  0  0  0  0  0  0  0  0  0
    1.7246   -0.7784    0.4828 H   0  0  0  0  0  0  0  0  0  0  0  0
    1.5508   -0.2552   -1.2506 H   0  0  0  0  0  0  0  0  0  0  0  0
    5.3632   -0.4761    0.8543 H   0  0  0  0  0  0  0  0  0  0  0  0
    3.6040   -1.1913   -1.1788 H   0  0  0  0  0  0  0  0  0  0  0  0
    0.6503   -2.0943   -0.8780 H   0  0  0  0  0  0  0  0  0  0  0  0
   -3.2218   -2.3095   -0.4872 H   0  0  0  0  0  0  0  0  0  0  0  0
  1  2  1  0
  2  3  2  0
  3  4  1  0
  4  5  2  0
  5  6  1  0
  6  7  1  0
  7  8  1  0
  8  9  2  0
  8 10  1  0
  8 11  1  0
  5 12  1  0
 12 13  1  0
 13 14  2  0
 12 15  2  0
 15 16  1  0
 15  2  1  0
  1 17  1  0
  1 18  1  0
  1 19  1  0
  4 20  1  0
  6 21  1  0
  6 22  1  0
 10 23  1  0
 11 24  1  0
 13 25  1  0
 16 26  1  0
M  END
$$$$

     RDKit          3D

 26 26  0  0  0  0  0  0  0  0999 V2000
   -4.2253    0.1245   -0.5643 C   0  0  0  0  0  0  0  0  0  0  0  0
   -2.8123   -0.1720   -0.4209 C   0  0  0  0  0  0  0  0  0  0  0  0
   -2.1995   -1.1478   -1.1119 N   0  0  0  0  0  0  0  0  0  0  0  0
   -0.8854   -1.4463   -1.0054 C   0  0  0  0  0  0  0  0  0  0  0  0
   -0.0934   -0.7478   -0.1764 C   0  0  0  0  0  0  0  0  0  0  0  0
    1.3535   -0.9604    0.1270 C   0  0  0  0  0  0  0  0  0  0  0  0
    2.1042   -0.3929   -0.9234 O   0  0  0  0  0  0  0  0  0  0  0  0
    3.7303   -0.2786   -0.5901 P   0  0  0  0  0  5  0  0  0  0  0  0
    4.1775   -1.3011    0.4005 O   0  0  0  0  0  0  0  0  0  0  0  0
    4.0604    1.2709    0.1187 O   0  0  0  0  0  0  0  0  0  0  0  0
    4.6036   -0.2804   -2.0386 O   0  0  0  0  0  0  0  0  0  0  0  0
   -0.6666    0.2967    0.5892 C   0  0  0  0  0  0  0  0  0  0  0  0
    0.1964    1.0902    1.4583 C   0  0  0  0  0  0  0  0  0  0  0  0
   -0.2742    2.0461    2.1019 O   0  0  0  0  0  0  0  0  0  0  0  0
   -2.0276    0.5456    0.4283 C   0  0  0  0  0  0  0  0  0  0  0  0
   -2.5006    1.6186    1.2208 O   0  0  0  0  0  0  0  0  0  0  0  0
   -4.3842    0.8224   -1.4320 H   0  0  0  0  0  0  0  0  0  0  0  0
   -4.6935    0.6589    0.3165 H   0  0  0  0  0  0  0  0  0  0  0  0
   -4.8808   -0.7939   -0.7308 H   0  0  0  0  0  0  0  0  0  0  0  0
   -0.4289   -2.2551   -1.6299 H   0  0  0  0  0  0  0  0  0  0  0  0
    1.4399   -2.1196   -0.2571 H   0  0  0  0  0  0  0  0  0  0  0  0
    1.7013   -1.0231    1.1215 H   0  0  0  0  0  0  0  0  0  0  0  0
    3.5922    1.3230    0.9954 H   0  0  0  0  0  0  0  0  0  0  0  0
    5.3058    0.3860   -2.0699 H   0  0  0  0  0  0  0  0  0  0  0  0
    1.2571    0.8507    1.5604 H   0  0  0  0  0  0  0  0  0  0  0  0
   -3.4497    1.8857    1.1466 H   0  0  0  0  0  0  0  0  0  0  0  0
  1  2  1  0
  2  3  2  0
  3  4  1  0
  4  5  2  0
  5  6  1  0
  6  7  1  0
  7  8  1  0
  8  9  2  0
  8 10  1  0
  8 11  1  0
  5 12  1  0
 12 13  1  0
 13 14  2  0
 12 15  2  0
 15 16  1  0
 15  2  1  0
  1 17  1  0
  1 18  1  0
  1 19  1  0
  4 20  1  0
  6 21  1  0
  6 22  1  0
 10 23  1  0
 11 24  1  0
 13 25  1  0
 16 26  1  0
M  END
$$$$

     RDKit          3D

 26 26  0  0  0  0  0  0  0  0999 V2000
   -3.9993    1.4128   -0.3279 C   0  0  0  0  0  0  0  0  0  0  0  0
   -2.5720    0.9812   -0.3923 C   0  0  0  0  0  0  0  0  0  0  0  0
   -1.7119    1.6988   -1.0894 N   0  0  0  0  0  0  0  0  0  0  0  0
   -0.4075    1.2896   -1.0929 C   0  0  0  0  0  0  0  0  0  0  0  0
    0.0068    0.1810   -0.4083 C   0  0  0  0  0  0  0  0  0  0  0  0
    1.3714   -0.2899   -0.4899 C   0  0  0  0  0  0  0  0  0  0  0  0
    2.2617    0.4547    0.3186 O   0  0  0  0  0  0  0  0  0  0  0  0
    3.7816   -0.2687    0.1379 P   0  0  0  0  0  5  0  0  0  0  0  0
    4.4606   -0.5227    1.4601 O   0  0  0  0  0  0  0  0  0  0  0  0
    3.7712   -1.6066   -0.8527 O   0  0  0  0  0  0  0  0  0  0  0  0
    4.7153    0.9557   -0.6290 O   0  0  0  0  0  0  0  0  0  0  0  0
   -0.8983   -0.6119    0.3428 C   0  0  0  0  0  0  0  0  0  0  0  0
   -0.4213   -1.6788    1.1762 C   0  0  0  0  0  0  0  0  0  0  0  0
    0.7529   -2.1360    1.1984 O   0  0  0  0  0  0  0  0  0  0  0  0
   -2.1754   -0.1521    0.3085 C   0  0  0  0  0  0  0  0  0  0  0  0
   -3.2224   -0.8351    1.0104 O   0  0  0  0  0  0  0  0  0  0  0  0
   -4.6159    0.9984   -1.1370 H   0  0  0  0  0  0  0  0  0  0  0  0
   -4.4591    1.2251    0.6801 H   0  0  0  0  0  0  0  0  0  0  0  0
   -3.9860    2.5114   -0.4382 H   0  0  0  0  0  0  0  0  0  0  0  0
    0.2806    1.9361   -1.6788 H   0  0  0  0  0  0  0  0  0  0  0  0
    1.6447   -1.2861   -0.6727 H   0  0  0  0  0  0  0  0  0  0  0  0
    1.7428    0.2285   -1.5614 H   0  0  0  0  0  0  0  0  0  0  0  0
    3.3344   -2.4028   -0.5028 H   0  0  0  0  0  0  0  0  0  0  0  0
    4.3456    1.7951   -0.2297 H   0  0  0  0  0  0  0  0  0  0  0  0
   -1.1032   -2.1854    1.8954 H   0  0  0  0  0  0  0  0  0  0  0  0
   -2.8972   -1.6921    1.5135 H   0  0  0  0  0  0  0  0  0  0  0  0
  1  2  1  0
  2  3  2  0
  3  4  1  0
  4  5  2  0
  5  6  1  0
  6  7  1  0
  7  8  1  0
  8  9  2  0
  8 10  1  0
  8 11  1  0
  5 12  1  0
 12 13  1  0
 13 14  2  0
 12 15  2  0
 15 16  1  0
 15  2  1  0
  1 17  1  0
  1 18  1  0
  1 19  1  0
  4 20  1  0
  6 21  1  0
  6 22  1  0
 10 23  1  0
 11 24  1  0
 13 25  1  0
 16 26  1  0
M  END
$$$$

     RDKit          3D

 26 26  0  0  0  0  0  0  0  0999 V2000
   -4.1644   -0.1652   -0.5579 C   0  0  0  0  0  0  0  0  0  0  0  0
   -2.7163   -0.3807   -0.1870 C   0  0  0  0  0  0  0  0  0  0  0  0
   -2.1783   -1.5738   -0.2102 N   0  0  0  0  0  0  0  0  0  0  0  0
   -0.8444   -1.7959    0.0095 C   0  0  0  0  0  0  0  0  0  0  0  0
   -0.0999   -0.7096    0.2768 C   0  0  0  0  0  0  0  0  0  0  0  0
    1.2888   -0.8069    0.8326 C   0  0  0  0  0  0  0  0  0  0  0  0
    2.1536   -0.7686   -0.2306 O   0  0  0  0  0  0  0  0  0  0  0  0
    3.7415   -0.7137    0.3671 P   0  0  0  0  0  5  0  0  0  0  0  0
    4.0397   -2.0675    1.0292 O   0  0  0  0  0  0  0  0  0  0  0  0
    3.9814    0.5101    1.4792 O   0  0  0  0  0  0  0  0  0  0  0  0
    4.7591   -0.5187   -0.9838 O   0  0  0  0  0  0  0  0  0  0  0  0
   -0.5978    0.6096    0.3381 C   0  0  0  0  0  0  0  0  0  0  0  0
    0.3873    1.6794    0.3616 C   0  0  0  0  0  0  0  0  0  0  0  0
   -0.5090    2.8709   -0.0393 O   0  0  0  0  0  0  0  0  0  0  0  0
   -1.9658    0.7776    0.0822 C   0  0  0  0  0  0  0  0  0  0  0  0
   -2.4976    2.0137    0.1231 O   0  0  0  0  0  0  0  0  0  0  0  0
   -4.5057   -0.9630   -1.2268 H   0  0  0  0  0  0  0  0  0  0  0  0
   -4.6711   -0.1490    0.4482 H   0  0  0  0  0  0  0  0  0  0  0  0
   -4.3006    0.8576   -0.9828 H   0  0  0  0  0  0  0  0  0  0  0  0
   -0.4350   -2.7752   -0.1292 H   0  0  0  0  0  0  0  0  0  0  0  0
    1.4388   -0.1088    1.6458 H   0  0  0  0  0  0  0  0  0  0  0  0
    1.3448   -1.9010    1.2591 H   0  0  0  0  0  0  0  0  0  0  0  0
    3.3783    1.2466    1.3370 H   0  0  0  0  0  0  0  0  0  0  0  0
    5.2347    0.3399   -0.9437 H   0  0  0  0  0  0  0  0  0  0  0  0
    1.1483    2.2176    0.4279 H   0  0  0  0  0  0  0  0  0  0  0  0
   -3.4103    2.2748    0.0098 H   0  0  0  0  0  0  0  0  0  0  0  0
  1  2  1  0
  2  3  2  0
  3  4  1  0
  4  5  2  0
  5  6  1  0
  6  7  1  0
  7  8  1  0
  8  9  2  0
  8 10  1  0
  8 11  1  0
  5 12  1  0
 12 13  1  0
 13 14  2  0
 12 15  2  0
 15 16  1  0
 15  2  1  0
  1 17  1  0
  1 18  1  0
  1 19  1  0
  4 20  1  0
  6 21  1  0
  6 22  1  0
 10 23  1  0
 11 24  1  0
 13 25  1  0
 16 26  1  0
M  END
$$$$

     RDKit          3D

 26 26  0  0  0  0  0  0  0  0999 V2000
   -4.1201   -0.5538    1.1608 C   0  0  0  0  0  0  0  0  0  0  0  0
   -2.6936   -0.4541    0.7944 C   0  0  0  0  0  0  0  0  0  0  0  0
   -1.8197   -1.4542    0.9738 N   0  0  0  0  0  0  0  0  0  0  0  0
   -0.5258   -1.3458    0.6348 C   0  0  0  0  0  0  0  0  0  0  0  0
   -0.0170   -0.1767    0.0730 C   0  0  0  0  0  0  0  0  0  0  0  0
    1.4258   -0.1001   -0.2771 C   0  0  0  0  0  0  0  0  0  0  0  0
    2.0762   -1.3062    0.0184 O   0  0  0  0  0  0  0  0  0  0  0  0
    3.7015   -1.1492   -0.4018 P   0  0  0  0  0  5  0  0  0  0  0  0
    4.4094   -2.4510   -0.0274 O   0  0  0  0  0  0  0  0  0  0  0  0
    4.4475    0.1295    0.4018 O   0  0  0  0  0  0  0  0  0  0  0  0
    3.8651   -0.9843   -2.0889 O   0  0  0  0  0  0  0  0  0  0  0  0
   -0.9061    0.8645   -0.1188 C   0  0  0  0  0  0  0  0  0  0  0  0
   -0.3640    2.0745   -0.7104 C   0  0  0  0  0  0  0  0  0  0  0  0
    0.8328    2.2210   -1.0439 O   0  0  0  0  0  0  0  0  0  0  0  0
   -2.2388    0.7376    0.2363 C   0  0  0  0  0  0  0  0  0  0  0  0
   -3.1170    1.7857    0.0397 O   0  0  0  0  0  0  0  0  0  0  0  0
   -4.7842   -0.5401    0.2567 H   0  0  0  0  0  0  0  0  0  0  0  0
   -4.2850   -1.5700    1.6155 H   0  0  0  0  0  0  0  0  0  0  0  0
   -4.4568    0.2466    1.8475 H   0  0  0  0  0  0  0  0  0  0  0  0
    0.1488   -2.1652    0.7912 H   0  0  0  0  0  0  0  0  0  0  0  0
    1.9622    0.7171    0.2396 H   0  0  0  0  0  0  0  0  0  0  0  0
    1.5068    0.0305   -1.3701 H   0  0  0  0  0  0  0  0  0  0  0  0
    5.3744   -0.1518    0.6066 H   0  0  0  0  0  0  0  0  0  0  0  0
    3.4139   -0.1783   -2.4098 H   0  0  0  0  0  0  0  0  0  0  0  0
   -1.0007    2.9175   -0.8877 H   0  0  0  0  0  0  0  0  0  0  0  0
   -2.8356    2.6520   -0.3545 H   0  0  0  0  0  0  0  0  0  0  0  0
  1  2  1  0
  2  3  2  0
  3  4  1  0
  4  5  2  0
  5  6  1  0
  6  7  1  0
  7  8  1  0
  8  9  2  0
  8 10  1  0
  8 11  1  0
  5 12  1  0
 12 13  1  0
 13 14  2  0
 12 15  2  0
 15 16  1  0
 15  2  1  0
  1 17  1  0
  1 18  1  0
  1 19  1  0
  4 20  1  0
  6 21  1  0
  6 22  1  0
 10 23  1  0
 11 24  1  0
 13 25  1  0
 16 26  1  0
M  END
$$$$

     RDKit          3D

 26 26  0  0  0  0  0  0  0  0999 V2000
   -4.0855   -1.0541   -1.0188 C   0  0  0  0  0  0  0  0  0  0  0  0
   -2.6524   -0.7416   -0.7487 C   0  0  0  0  0  0  0  0  0  0  0  0
   -1.6539   -1.2555   -1.4675 N   0  0  0  0  0  0  0  0  0  0  0  0
   -0.3594   -0.9848   -1.2377 C   0  0  0  0  0  0  0  0  0  0  0  0
    0.0556   -0.1467   -0.2327 C   0  0  0  0  0  0  0  0  0  0  0  0
    1.4867    0.1579    0.0279 C   0  0  0  0  0  0  0  0  0  0  0  0
    2.3355   -0.4818   -0.8347 O   0  0  0  0  0  0  0  0  0  0  0  0
    3.9216   -0.0456   -0.4236 P   0  0  0  0  0  5  0  0  0  0  0  0
    4.9222   -0.6048   -1.3991 O   0  0  0  0  0  0  0  0  0  0  0  0
    4.3417   -0.5201    1.1187 O   0  0  0  0  0  0  0  0  0  0  0  0
    4.0036    1.6521   -0.5346 O   0  0  0  0  0  0  0  0  0  0  0  0
   -0.9600    0.4180    0.5504 C   0  0  0  0  0  0  0  0  0  0  0  0
   -0.5432    1.3027    1.6131 C   0  0  0  0  0  0  0  0  0  0  0  0
   -1.3872    1.8462    2.3560 O   0  0  0  0  0  0  0  0  0  0  0  0
   -2.2886    0.1281    0.2998 C   0  0  0  0  0  0  0  0  0  0  0  0
   -3.3381    0.6378    1.0175 O   0  0  0  0  0  0  0  0  0  0  0  0
   -4.5413   -0.3338   -1.7311 H   0  0  0  0  0  0  0  0  0  0  0  0
   -4.6907   -0.9989   -0.0676 H   0  0  0  0  0  0  0  0  0  0  0  0
   -4.2267   -2.0623   -1.4168 H   0  0  0  0  0  0  0  0  0  0  0  0
    0.4325   -1.4294   -1.8538 H   0  0  0  0  0  0  0  0  0  0  0  0
    1.7852   -0.1284    1.0674 H   0  0  0  0  0  0  0  0  0  0  0  0
    1.6788    1.2498   -0.0483 H   0  0  0  0  0  0  0  0  0  0  0  0
    3.8680   -1.3143    1.4260 H   0  0  0  0  0  0  0  0  0  0  0  0
    4.7727    1.9712    0.0004 H   0  0  0  0  0  0  0  0  0  0  0  0
    0.5244    1.4941    1.7630 H   0  0  0  0  0  0  0  0  0  0  0  0
   -3.4016    1.2443    1.7746 H   0  0  0  0  0  0  0  0  0  0  0  0
  1  2  1  0
  2  3  2  0
  3  4  1  0
  4  5  2  0
  5  6  1  0
  6  7  1  0
  7  8  1  0
  8  9  2  0
  8 10  1  0
  8 11  1  0
  5 12  1  0
 12 13  1  0
 13 14  2  0
 12 15  2  0
 15 16  1  0
 15  2  1  0
  1 17  1  0
  1 18  1  0
  1 19  1  0
  4 20  1  0
  6 21  1  0
  6 22  1  0
 10 23  1  0
 11 24  1  0
 13 25  1  0
 16 26  1  0
M  END
$$$$

     RDKit          3D

 26 26  0  0  0  0  0  0  0  0999 V2000
   -3.6339    1.7112   -0.0587 C   0  0  0  0  0  0  0  0  0  0  0  0
   -2.3486    1.0232    0.3672 C   0  0  0  0  0  0  0  0  0  0  0  0
   -1.3628    1.7922    0.9024 N   0  0  0  0  0  0  0  0  0  0  0  0
   -0.1797    1.1973    1.1233 C   0  0  0  0  0  0  0  0  0  0  0  0
   -0.0254   -0.1688    0.7953 C   0  0  0  0  0  0  0  0  0  0  0  0
    1.4230   -0.6399    0.8727 C   0  0  0  0  0  0  0  0  0  0  0  0
    2.0255    0.3155    0.0509 O   0  0  0  0  0  0  0  0  0  0  0  0
    3.6104    0.2815   -0.3042 P   0  0  0  0  0  5  0  0  0  0  0  0
    3.8177    0.8748   -1.7514 O   0  0  0  0  0  0  0  0  0  0  0  0
    4.4288    1.3335    0.7531 O   0  0  0  0  0  0  0  0  0  0  0  0
    4.3344   -1.2238   -0.3354 O   0  0  0  0  0  0  0  0  0  0  0  0
   -1.0061   -0.9636    0.2732 C   0  0  0  0  0  0  0  0  0  0  0  0
   -0.7787   -2.3372   -0.0660 C   0  0  0  0  0  0  0  0  0  0  0  0
   -1.5762   -3.1012   -0.5805 O   0  0  0  0  0  0  0  0  0  0  0  0
   -2.2199   -0.3150    0.0500 C   0  0  0  0  0  0  0  0  0  0  0  0
   -3.3224   -0.9986   -0.4757 O   0  0  0  0  0  0  0  0  0  0  0  0
   -3.8175    1.4703   -1.1535 H   0  0  0  0  0  0  0  0  0  0  0  0
   -3.3566    2.8184   -0.1184 H   0  0  0  0  0  0  0  0  0  0  0  0
   -4.4476    1.5512    0.6002 H   0  0  0  0  0  0  0  0  0  0  0  0
    0.6456    1.7535    1.5153 H   0  0  0  0  0  0  0  0  0  0  0  0
    1.6156   -1.6616    0.8101 H   0  0  0  0  0  0  0  0  0  0  0  0
    1.7941   -0.2945    1.9547 H   0  0  0  0  0  0  0  0  0  0  0  0
    3.8875    2.2328    0.6244 H   0  0  0  0  0  0  0  0  0  0  0  0
    3.7150   -1.9451   -0.2020 H   0  0  0  0  0  0  0  0  0  0  0  0
    0.2019   -2.7823    0.1406 H   0  0  0  0  0  0  0  0  0  0  0  0
   -3.4241   -1.9241   -0.8097 H   0  0  0  0  0  0  0  0  0  0  0  0
  1  2  1  0
  2  3  2  0
  3  4  1  0
  4  5  2  0
  5  6  1  0
  6  7  1  0
  7  8  1  0
  8  9  2  0
  8 10  1  0
  8 11  1  0
  5 12  1  0
 12 13  1  0
 13 14  2  0
 12 15  2  0
 15 16  1  0
 15  2  1  0
  1 17  1  0
  1 18  1  0
  1 19  1  0
  4 20  1  0
  6 21  1  0
  6 22  1  0
 10 23  1  0
 11 24  1  0
 13 25  1  0
 16 26  1  0
M  END
$$$$

     RDKit          3D

 26 26  0  0  0  0  0  0  0  0999 V2000
    3.7532    1.1912   -0.0590 C   0  0  0  0  0  0  0  0  0  0  0  0
    2.3849    0.6075    0.0451 C   0  0  0  0  0  0  0  0  0  0  0  0
    1.3372    1.3916   -0.1567 N   0  0  0  0  0  0  0  0  0  0  0  0
    0.0893    0.8671   -0.0633 C   0  0  0  0  0  0  0  0  0  0  0  0
   -0.1385   -0.4365    0.2302 C   0  0  0  0  0  0  0  0  0  0  0  0
   -1.5732   -0.8995    0.3285 C   0  0  0  0  0  0  0  0  0  0  0  0
   -2.4030   -0.0318    0.0890 O   0  0  0  0  0  0  0  0  0  0  0  0
   -3.4277    1.0413   -0.2101 P   0  0  0  0  0  5  0  0  0  0  0  0
   -3.5334    1.4052   -1.7159 O   0  0  0  0  0  0  0  0  0  0  0  0
   -5.0615    0.6626    0.2809 O   0  0  0  0  0  0  0  0  0  0  0  0
   -3.1471    2.5427    0.6273 O   0  0  0  0  0  0  0  0  0  0  0  0
    0.9195   -1.2805    0.4451 C   0  0  0  0  0  0  0  0  0  0  0  0
    0.6900   -2.6830    0.7484 C   0  0  0  0  0  0  0  0  0  0  0  0
   -0.3883   -3.2644    0.8539 O   0  0  0  0  0  0  0  0  0  0  0  0
    2.1919   -0.7231    0.3451 C   0  0  0  0  0  0  0  0  0  0  0  0
    3.3015   -1.4931    0.5450 O   0  0  0  0  0  0  0  0  0  0  0  0
    4.4811    0.5642    0.4872 H   0  0  0  0  0  0  0  0  0  0  0  0
    4.0495    1.2483   -1.1175 H   0  0  0  0  0  0  0  0  0  0  0  0
    3.6844    2.2274    0.3359 H   0  0  0  0  0  0  0  0  0  0  0  0
   -0.7381    1.5310   -0.2328 H   0  0  0  0  0  0  0  0  0  0  0  0
   -1.6634   -1.4981    1.3076 H   0  0  0  0  0  0  0  0  0  0  0  0
   -1.5873   -1.7744   -0.4238 H   0  0  0  0  0  0  0  0  0  0  0  0
   -5.5655    1.4762   -0.0283 H   0  0  0  0  0  0  0  0  0  0  0  0
   -2.5780    3.0642    0.0263 H   0  0  0  0  0  0  0  0  0  0  0  0
    1.5714   -3.2897    0.8998 H   0  0  0  0  0  0  0  0  0  0  0  0
    3.3513   -2.4464    0.7642 H   0  0  0  0  0  0  0  0  0  0  0  0
  1  2  1  0
  2  3  2  0
  3  4  1  0
  4  5  2  0
  5  6  1  0
  6  7  1  0
  7  8  1  0
  8  9  2  0
  8 10  1  0
  8 11  1  0
  5 12  1  0
 12 13  1  0
 13 14  2  0
 12 15  2  0
 15 16  1  0
 15  2  1  0
  1 17  1  0
  1 18  1  0
  1 19  1  0
  4 20  1  0
  6 21  1  0
  6 22  1  0
 10 23  1  0
 11 24  1  0
 13 25  1  0
 16 26  1  0
M  END
$$$$

     RDKit          3D

 26 26  0  0  0  0  0  0  0  0999 V2000
   -3.8704    1.4450    0.9145 C   0  0  0  0  0  0  0  0  0  0  0  0
   -2.4804    0.9529    0.5869 C   0  0  0  0  0  0  0  0  0  0  0  0
   -1.4308    1.7447    0.8081 N   0  0  0  0  0  0  0  0  0  0  0  0
   -0.1919    1.3351    0.5275 C   0  0  0  0  0  0  0  0  0  0  0  0
    0.0589    0.0990    0.0059 C   0  0  0  0  0  0  0  0  0  0  0  0
    1.4233   -0.3337   -0.3049 C   0  0  0  0  0  0  0  0  0  0  0  0
    2.2918    0.7128    0.0477 O   0  0  0  0  0  0  0  0  0  0  0  0
    3.9044    0.2657   -0.2931 P   0  0  0  0  0  5  0  0  0  0  0  0
    4.8221    1.3398    0.1834 O   0  0  0  0  0  0  0  0  0  0  0  0
    4.2221   -1.1320    0.6057 O   0  0  0  0  0  0  0  0  0  0  0  0
    4.0799   -0.0389   -1.9476 O   0  0  0  0  0  0  0  0  0  0  0  0
   -0.9951   -0.7358   -0.2320 C   0  0  0  0  0  0  0  0  0  0  0  0
   -0.7910   -2.0599   -0.7793 C   0  0  0  0  0  0  0  0  0  0  0  0
    0.3426   -2.5111   -1.0647 O   0  0  0  0  0  0  0  0  0  0  0  0
   -2.2918   -0.3070    0.0616 C   0  0  0  0  0  0  0  0  0  0  0  0
   -3.3533   -1.1649   -0.1851 O   0  0  0  0  0  0  0  0  0  0  0  0
   -4.4119    1.7243   -0.0087 H   0  0  0  0  0  0  0  0  0  0  0  0
   -3.7850    2.2884    1.6395 H   0  0  0  0  0  0  0  0  0  0  0  0
   -4.4462    0.6509    1.4260 H   0  0  0  0  0  0  0  0  0  0  0  0
    0.6748    1.9745    0.7043 H   0  0  0  0  0  0  0  0  0  0  0  0
    1.5355   -0.5629   -1.3951 H   0  0  0  0  0  0  0  0  0  0  0  0
    1.7550   -1.2093    0.3189 H   0  0  0  0  0  0  0  0  0  0  0  0
    3.8231   -0.9878    1.5032 H   0  0  0  0  0  0  0  0  0  0  0  0
    5.0286    0.0759   -2.1880 H   0  0  0  0  0  0  0  0  0  0  0  0
   -1.6294   -2.7286   -0.9684 H   0  0  0  0  0  0  0  0  0  0  0  0
   -4.2851   -0.8370    0.0337 H   0  0  0  0  0  0  0  0  0  0  0  0
  1  2  1  0
  2  3  2  0
  3  4  1  0
  4  5  2  0
  5  6  1  0
  6  7  1  0
  7  8  1  0
  8  9  2  0
  8 10  1  0
  8 11  1  0
  5 12  1  0
 12 13  1  0
 13 14  2  0
 12 15  2  0
 15 16  1  0
 15  2  1  0
  1 17  1  0
  1 18  1  0
  1 19  1  0
  4 20  1  0
  6 21  1  0
  6 22  1  0
 10 23  1  0
 11 24  1  0
 13 25  1  0
 16 26  1  0
M  END
$$$$

     RDKit          3D

 26 26  0  0  0  0  0  0  0  0999 V2000
   -4.0535    1.2114   -0.5552 C   0  0  0  0  0  0  0  0  0  0  0  0
   -2.6318    0.8142   -0.3971 C   0  0  0  0  0  0  0  0  0  0  0  0
   -1.6259    1.6640   -0.6299 N   0  0  0  0  0  0  0  0  0  0  0  0
   -0.3429    1.2998   -0.4854 C   0  0  0  0  0  0  0  0  0  0  0  0
    0.0099    0.0454   -0.0939 C   0  0  0  0  0  0  0  0  0  0  0  0
    1.4322   -0.3117    0.0520 C   0  0  0  0  0  0  0  0  0  0  0  0
    2.2060    0.7982   -0.2661 O   0  0  0  0  0  0  0  0  0  0  0  0
    3.8563    0.4686   -0.1227 P   0  0  0  0  0  5  0  0  0  0  0  0
    4.1465   -0.8555   -0.8119 O   0  0  0  0  0  0  0  0  0  0  0  0
    4.2646    0.3769    1.5151 O   0  0  0  0  0  0  0  0  0  0  0  0
    4.7439    1.7259   -0.8077 O   0  0  0  0  0  0  0  0  0  0  0  0
   -0.9897   -0.8745    0.1604 C   0  0  0  0  0  0  0  0  0  0  0  0
   -0.5835   -2.1848    0.5704 C   0  0  0  0  0  0  0  0  0  0  0  0
   -1.4217   -3.0685    0.8178 O   0  0  0  0  0  0  0  0  0  0  0  0
   -2.2980   -0.4963    0.0110 C   0  0  0  0  0  0  0  0  0  0  0  0
   -3.3699   -1.3052    0.2296 O   0  0  0  0  0  0  0  0  0  0  0  0
   -4.5303    0.5372   -1.2983 H   0  0  0  0  0  0  0  0  0  0  0  0
   -4.0848    2.2657   -0.8465 H   0  0  0  0  0  0  0  0  0  0  0  0
   -4.6167    1.1202    0.3985 H   0  0  0  0  0  0  0  0  0  0  0  0
    0.4577    2.0222   -0.6847 H   0  0  0  0  0  0  0  0  0  0  0  0
    1.6392   -0.5253    1.1412 H   0  0  0  0  0  0  0  0  0  0  0  0
    1.7454   -1.1871   -0.5017 H   0  0  0  0  0  0  0  0  0  0  0  0
    3.6366   -0.1966    2.0078 H   0  0  0  0  0  0  0  0  0  0  0  0
    5.3577    1.3917   -1.5087 H   0  0  0  0  0  0  0  0  0  0  0  0
    0.4456   -2.4964    0.6921 H   0  0  0  0  0  0  0  0  0  0  0  0
   -3.3931   -2.2392    0.5137 H   0  0  0  0  0  0  0  0  0  0  0  0
  1  2  1  0
  2  3  2  0
  3  4  1  0
  4  5  2  0
  5  6  1  0
  6  7  1  0
  7  8  1  0
  8  9  2  0
  8 10  1  0
  8 11  1  0
  5 12  1  0
 12 13  1  0
 13 14  2  0
 12 15  2  0
 15 16  1  0
 15  2  1  0
  1 17  1  0
  1 18  1  0
  1 19  1  0
  4 20  1  0
  6 21  1  0
  6 22  1  0
 10 23  1  0
 11 24  1  0
 13 25  1  0
 16 26  1  0
M  END
$$$$

     RDKit          3D

 26 26  0  0  0  0  0  0  0  0999 V2000
   -4.0373    0.7754   -0.6475 C   0  0  0  0  0  0  0  0  0  0  0  0
   -2.6871    0.4827   -0.0842 C   0  0  0  0  0  0  0  0  0  0  0  0
   -2.0562    1.3484    0.6735 N   0  0  0  0  0  0  0  0  0  0  0  0
   -0.7444    1.1548    1.0264 C   0  0  0  0  0  0  0  0  0  0  0  0
   -0.0151    0.0495    0.6197 C   0  0  0  0  0  0  0  0  0  0  0  0
    1.4635    0.0865    0.6308 C   0  0  0  0  0  0  0  0  0  0  0  0
    2.3069   -0.7736    1.1700 O   0  0  0  0  0  0  0  0  0  0  0  0
    3.8780   -0.1049    0.7827 P   0  0  0  0  0  5  0  0  0  0  0  0
    4.8810   -0.7651    1.6615 O   0  0  0  0  0  0  0  0  0  0  0  0
    3.8876    1.5838    1.1309 O   0  0  0  0  0  0  0  0  0  0  0  0
    4.3402   -0.3624   -0.7836 O   0  0  0  0  0  0  0  0  0  0  0  0
   -0.6739   -0.9027   -0.1638 C   0  0  0  0  0  0  0  0  0  0  0  0
   -0.0259   -2.0946   -0.5783 C   0  0  0  0  0  0  0  0  0  0  0  0
    1.1621   -2.3375   -0.2728 O   0  0  0  0  0  0  0  0  0  0  0  0
   -2.0128   -0.6783   -0.5099 C   0  0  0  0  0  0  0  0  0  0  0  0
   -2.6370   -1.6123   -1.2822 O   0  0  0  0  0  0  0  0  0  0  0  0
   -4.0173    0.7245   -1.7646 H   0  0  0  0  0  0  0  0  0  0  0  0
   -4.3023    1.8213   -0.4162 H   0  0  0  0  0  0  0  0  0  0  0  0
   -4.7890    0.0694   -0.3350 H   0  0  0  0  0  0  0  0  0  0  0  0
   -0.2967    1.9287    1.6373 H   0  0  0  0  0  0  0  0  0  0  0  0
    1.8085    0.7964   -0.2213 H   0  0  0  0  0  0  0  0  0  0  0  0
    1.5705    0.9996    1.5051 H   0  0  0  0  0  0  0  0  0  0  0  0
    3.4951    2.0703    0.3773 H   0  0  0  0  0  0  0  0  0  0  0  0
    3.6580   -0.0025   -1.3974 H   0  0  0  0  0  0  0  0  0  0  0  0
   -0.5554   -2.7955   -1.1777 H   0  0  0  0  0  0  0  0  0  0  0  0
   -3.6011   -1.4615   -1.5808 H   0  0  0  0  0  0  0  0  0  0  0  0
  1  2  1  0
  2  3  2  0
  3  4  1  0
  4  5  2  0
  5  6  1  0
  6  7  1  0
  7  8  1  0
  8  9  2  0
  8 10  1  0
  8 11  1  0
  5 12  1  0
 12 13  1  0
 13 14  2  0
 12 15  2  0
 15 16  1  0
 15  2  1  0
  1 17  1  0
  1 18  1  0
  1 19  1  0
  4 20  1  0
  6 21  1  0
  6 22  1  0
 10 23  1  0
 11 24  1  0
 13 25  1  0
 16 26  1  0
M  END
$$$$

     RDKit          3D

 26 26  0  0  0  0  0  0  0  0999 V2000
    4.0430   -1.2324    0.0960 C   0  0  0  0  0  0  0  0  0  0  0  0
    2.6158   -0.8381    0.0108 C   0  0  0  0  0  0  0  0  0  0  0  0
    1.6215   -1.7215   -0.0783 N   0  0  0  0  0  0  0  0  0  0  0  0
    0.3297   -1.3586   -0.1553 C   0  0  0  0  0  0  0  0  0  0  0  0
    0.0164   -0.0160   -0.1418 C   0  0  0  0  0  0  0  0  0  0  0  0
   -1.3946    0.3729   -0.2260 C   0  0  0  0  0  0  0  0  0  0  0  0
   -2.1803   -0.7660   -0.3078 O   0  0  0  0  0  0  0  0  0  0  0  0
   -3.8162   -0.3994   -0.4077 P   0  0  0  0  0  5  0  0  0  0  0  0
   -4.1064    0.3431   -1.6891 O   0  0  0  0  0  0  0  0  0  0  0  0
   -4.2227    0.5173    0.9593 O   0  0  0  0  0  0  0  0  0  0  0  0
   -4.6719   -1.8630   -0.4327 O   0  0  0  0  0  0  0  0  0  0  0  0
    1.0162    0.9630   -0.0498 C   0  0  0  0  0  0  0  0  0  0  0  0
    0.5878    2.3467   -0.0429 C   0  0  0  0  0  0  0  0  0  0  0  0
    1.3884    3.3167    0.0355 O   0  0  0  0  0  0  0  0  0  0  0  0
    2.3254    0.5424    0.0268 C   0  0  0  0  0  0  0  0  0  0  0  0
    3.3569    1.4334    0.1186 O   0  0  0  0  0  0  0  0  0  0  0  0
    4.6574   -0.7516   -0.6727 H   0  0  0  0  0  0  0  0  0  0  0  0
    4.1082   -2.3383   -0.0219 H   0  0  0  0  0  0  0  0  0  0  0  0
    4.4797   -1.0091    1.0970 H   0  0  0  0  0  0  0  0  0  0  0  0
   -0.4620   -2.1096   -0.2275 H   0  0  0  0  0  0  0  0  0  0  0  0
   -1.5311    0.9260   -1.1866 H   0  0  0  0  0  0  0  0  0  0  0  0
   -1.7157    1.0609    0.5783 H   0  0  0  0  0  0  0  0  0  0  0  0
   -5.0432    0.1290    1.3408 H   0  0  0  0  0  0  0  0  0  0  0  0
   -4.2729   -2.4961    0.2325 H   0  0  0  0  0  0  0  0  0  0  0  0
   -0.4963    2.5516   -0.1101 H   0  0  0  0  0  0  0  0  0  0  0  0
    3.3670    2.3964    0.1440 H   0  0  0  0  0  0  0  0  0  0  0  0
  1  2  1  0
  2  3  2  0
  3  4  1  0
  4  5  2  0
  5  6  1  0
  6  7  1  0
  7  8  1  0
  8  9  2  0
  8 10  1  0
  8 11  1  0
  5 12  1  0
 12 13  1  0
 13 14  2  0
 12 15  2  0
 15 16  1  0
 15  2  1  0
  1 17  1  0
  1 18  1  0
  1 19  1  0
  4 20  1  0
  6 21  1  0
  6 22  1  0
 10 23  1  0
 11 24  1  0
 13 25  1  0
 16 26  1  0
M  END
$$$$

     RDKit          3D

 26 26  0  0  0  0  0  0  0  0999 V2000
   -3.9307    1.6758    0.0218 C   0  0  0  0  0  0  0  0  0  0  0  0
   -2.5590    1.0844   -0.0373 C   0  0  0  0  0  0  0  0  0  0  0  0
   -1.4763    1.8825   -0.0232 N   0  0  0  0  0  0  0  0  0  0  0  0
   -0.2208    1.4198   -0.0732 C   0  0  0  0  0  0  0  0  0  0  0  0
   -0.0339    0.0477   -0.1429 C   0  0  0  0  0  0  0  0  0  0  0  0
    1.3850   -0.4196   -0.1899 C   0  0  0  0  0  0  0  0  0  0  0  0
    2.2717    0.6570   -0.1660 O   0  0  0  0  0  0  0  0  0  0  0  0
    3.8674    0.1020   -0.2201 P   0  0  0  0  0  5  0  0  0  0  0  0
    4.3779    0.3312   -1.6148 O   0  0  0  0  0  0  0  0  0  0  0  0
    4.7707    0.9286    0.9372 O   0  0  0  0  0  0  0  0  0  0  0  0
    3.8591   -1.5543    0.0758 O   0  0  0  0  0  0  0  0  0  0  0  0
   -1.0764   -0.8296   -0.1618 C   0  0  0  0  0  0  0  0  0  0  0  0
   -0.8858   -2.2653   -0.2379 C   0  0  0  0  0  0  0  0  0  0  0  0
    0.2654   -2.7464   -0.2879 O   0  0  0  0  0  0  0  0  0  0  0  0
   -2.3592   -0.2750   -0.1068 C   0  0  0  0  0  0  0  0  0  0  0  0
   -3.4337   -1.1460   -0.1246 O   0  0  0  0  0  0  0  0  0  0  0  0
   -3.8792    2.7249    0.4066 H   0  0  0  0  0  0  0  0  0  0  0  0
   -4.5678    1.1031    0.7329 H   0  0  0  0  0  0  0  0  0  0  0  0
   -4.3959    1.7398   -0.9836 H   0  0  0  0  0  0  0  0  0  0  0  0
    0.6464    2.0985   -0.0600 H   0  0  0  0  0  0  0  0  0  0  0  0
    1.6216   -1.1382    0.6341 H   0  0  0  0  0  0  0  0  0  0  0  0
    1.5095   -0.9783   -1.1345 H   0  0  0  0  0  0  0  0  0  0  0  0
    5.5896    1.2630    0.5042 H   0  0  0  0  0  0  0  0  0  0  0  0
    4.7225   -1.9902   -0.0525 H   0  0  0  0  0  0  0  0  0  0  0  0
   -1.7066   -2.9627   -0.2543 H   0  0  0  0  0  0  0  0  0  0  0  0
   -4.3616   -0.7526   -0.0853 H   0  0  0  0  0  0  0  0  0  0  0  0
  1  2  1  0
  2  3  2  0
  3  4  1  0
  4  5  2  0
  5  6  1  0
  6  7  1  0
  7  8  1  0
  8  9  2  0
  8 10  1  0
  8 11  1  0
  5 12  1  0
 12 13  1  0
 13 14  2  0
 12 15  2  0
 15 16  1  0
 15  2  1  0
  1 17  1  0
  1 18  1  0
  1 19  1  0
  4 20  1  0
  6 21  1  0
  6 22  1  0
 10 23  1  0
 11 24  1  0
 13 25  1  0
 16 26  1  0
M  END
$$$$

     RDKit          3D

 26 26  0  0  0  0  0  0  0  0999 V2000
   -3.8049    1.4989   -1.0497 C   0  0  0  0  0  0  0  0  0  0  0  0
   -2.4331    1.0303   -0.7484 C   0  0  0  0  0  0  0  0  0  0  0  0
   -1.3572    1.6745   -1.1874 N   0  0  0  0  0  0  0  0  0  0  0  0
   -0.1072    1.2633   -0.9234 C   0  0  0  0  0  0  0  0  0  0  0  0
    0.0409    0.1318   -0.1694 C   0  0  0  0  0  0  0  0  0  0  0  0
    1.3962   -0.3501    0.1410 C   0  0  0  0  0  0  0  0  0  0  0  0
    2.3729    0.4741   -0.4174 O   0  0  0  0  0  0  0  0  0  0  0  0
    3.8751   -0.1583   -0.0078 P   0  0  0  0  0  5  0  0  0  0  0  0
    4.4741   -1.0001   -1.1018 O   0  0  0  0  0  0  0  0  0  0  0  0
    4.9397    1.1454    0.2848 O   0  0  0  0  0  0  0  0  0  0  0  0
    3.7181   -1.0049    1.4293 O   0  0  0  0  0  0  0  0  0  0  0  0
   -1.0477   -0.5944    0.3245 C   0  0  0  0  0  0  0  0  0  0  0  0
   -0.8301   -1.7872    1.1189 C   0  0  0  0  0  0  0  0  0  0  0  0
   -1.7838   -2.4451    1.5661 O   0  0  0  0  0  0  0  0  0  0  0  0
   -2.3069   -0.1431    0.0338 C   0  0  0  0  0  0  0  0  0  0  0  0
   -3.4592   -0.7559    0.4525 O   0  0  0  0  0  0  0  0  0  0  0  0
   -3.7947    2.5277   -1.4347 H   0  0  0  0  0  0  0  0  0  0  0  0
   -4.3949    1.4060   -0.1126 H   0  0  0  0  0  0  0  0  0  0  0  0
   -4.2273    0.7647   -1.7881 H   0  0  0  0  0  0  0  0  0  0  0  0
    0.7620    1.8275   -1.3073 H   0  0  0  0  0  0  0  0  0  0  0  0
    1.5811   -1.3795   -0.2498 H   0  0  0  0  0  0  0  0  0  0  0  0
    1.5932   -0.3748    1.2343 H   0  0  0  0  0  0  0  0  0  0  0  0
    4.6646    1.9110   -0.2732 H   0  0  0  0  0  0  0  0  0  0  0  0
    3.5929   -1.9819    1.3053 H   0  0  0  0  0  0  0  0  0  0  0  0
    0.1965   -2.1362    1.3432 H   0  0  0  0  0  0  0  0  0  0  0  0
   -3.6603   -1.5438    0.9801 H   0  0  0  0  0  0  0  0  0  0  0  0
  1  2  1  0
  2  3  2  0
  3  4  1  0
  4  5  2  0
  5  6  1  0
  6  7  1  0
  7  8  1  0
  8  9  2  0
  8 10  1  0
  8 11  1  0
  5 12  1  0
 12 13  1  0
 13 14  2  0
 12 15  2  0
 15 16  1  0
 15  2  1  0
  1 17  1  0
  1 18  1  0
  1 19  1  0
  4 20  1  0
  6 21  1  0
  6 22  1  0
 10 23  1  0
 11 24  1  0
 13 25  1  0
 16 26  1  0
M  END
$$$$

     RDKit          3D

 26 26  0  0  0  0  0  0  0  0999 V2000
   -3.5507    0.8696   -1.1776 C   0  0  0  0  0  0  0  0  0  0  0  0
   -2.2070    0.6047   -0.5495 C   0  0  0  0  0  0  0  0  0  0  0  0
   -1.2315    1.5018   -0.5656 N   0  0  0  0  0  0  0  0  0  0  0  0
   -0.0139    1.2938   -0.0106 C   0  0  0  0  0  0  0  0  0  0  0  0
    0.2261    0.0948    0.5990 C   0  0  0  0  0  0  0  0  0  0  0  0
    1.5133   -0.2112    1.2417 C   0  0  0  0  0  0  0  0  0  0  0  0
    2.4976    0.7202    1.1605 O   0  0  0  0  0  0  0  0  0  0  0  0
    3.1045    1.0727   -0.3427 P   0  0  0  0  0  5  0  0  0  0  0  0
    3.3124    2.5641   -0.5040 O   0  0  0  0  0  0  0  0  0  0  0  0
    4.6759    0.3848   -0.5369 O   0  0  0  0  0  0  0  0  0  0  0  0
    2.1851    0.5181   -1.6347 O   0  0  0  0  0  0  0  0  0  0  0  0
   -0.7844   -0.8757    0.6349 C   0  0  0  0  0  0  0  0  0  0  0  0
   -0.5099   -2.1387    1.3016 C   0  0  0  0  0  0  0  0  0  0  0  0
   -1.3312   -3.0537    1.3927 O   0  0  0  0  0  0  0  0  0  0  0  0
   -2.0286   -0.6468    0.0609 C   0  0  0  0  0  0  0  0  0  0  0  0
   -3.0543   -1.5372    0.0554 O   0  0  0  0  0  0  0  0  0  0  0  0
   -3.6424    0.3914   -2.1594 H   0  0  0  0  0  0  0  0  0  0  0  0
   -3.6732    1.9696   -1.2066 H   0  0  0  0  0  0  0  0  0  0  0  0
   -4.3276    0.4306   -0.4977 H   0  0  0  0  0  0  0  0  0  0  0  0
    0.7062    2.1137   -0.0642 H   0  0  0  0  0  0  0  0  0  0  0  0
    1.8869   -1.2383    0.9395 H   0  0  0  0  0  0  0  0  0  0  0  0
    1.2888   -0.3424    2.3415 H   0  0  0  0  0  0  0  0  0  0  0  0
    5.2392    0.6350    0.2498 H   0  0  0  0  0  0  0  0  0  0  0  0
    2.4556   -0.3973   -1.8465 H   0  0  0  0  0  0  0  0  0  0  0  0
    0.4571   -2.2967    1.7443 H   0  0  0  0  0  0  0  0  0  0  0  0
   -3.1941   -2.4270    0.3874 H   0  0  0  0  0  0  0  0  0  0  0  0
  1  2  1  0
  2  3  2  0
  3  4  1  0
  4  5  2  0
  5  6  1  0
  6  7  1  0
  7  8  1  0
  8  9  2  0
  8 10  1  0
  8 11  1  0
  5 12  1  0
 12 13  1  0
 13 14  2  0
 12 15  2  0
 15 16  1  0
 15  2  1  0
  1 17  1  0
  1 18  1  0
  1 19  1  0
  4 20  1  0
  6 21  1  0
  6 22  1  0
 10 23  1  0
 11 24  1  0
 13 25  1  0
 16 26  1  0
M  END
$$$$

     RDKit          3D

 26 26  0  0  0  0  0  0  0  0999 V2000
   -3.4180    1.7840   -0.3018 C   0  0  0  0  0  0  0  0  0  0  0  0
   -2.1100    1.1021    0.0063 C   0  0  0  0  0  0  0  0  0  0  0  0
   -0.9879    1.7913    0.1819 N   0  0  0  0  0  0  0  0  0  0  0  0
    0.1820    1.1734    0.4580 C   0  0  0  0  0  0  0  0  0  0  0  0
    0.2989   -0.1883    0.5747 C   0  0  0  0  0  0  0  0  0  0  0  0
    1.5287   -0.9304    0.9211 C   0  0  0  0  0  0  0  0  0  0  0  0
    2.6284   -0.1154    0.9838 O   0  0  0  0  0  0  0  0  0  0  0  0
    2.9947    0.4839   -0.5521 P   0  0  0  0  0  5  0  0  0  0  0  0
    1.8488    0.3090   -1.5126 O   0  0  0  0  0  0  0  0  0  0  0  0
    4.3251   -0.4498   -1.1368 O   0  0  0  0  0  0  0  0  0  0  0  0
    3.4921    2.0983   -0.4891 O   0  0  0  0  0  0  0  0  0  0  0  0
   -0.8950   -0.9494    0.3909 C   0  0  0  0  0  0  0  0  0  0  0  0
   -0.7942   -2.3937    0.5149 C   0  0  0  0  0  0  0  0  0  0  0  0
   -1.7903   -3.1208    0.3694 O   0  0  0  0  0  0  0  0  0  0  0  0
   -2.0700   -0.3000    0.1121 C   0  0  0  0  0  0  0  0  0  0  0  0
   -3.2484   -0.9529   -0.0766 O   0  0  0  0  0  0  0  0  0  0  0  0
   -3.5689    1.8059   -1.4003 H   0  0  0  0  0  0  0  0  0  0  0  0
   -4.1900    1.2197    0.2437 H   0  0  0  0  0  0  0  0  0  0  0  0
   -3.3973    2.8113    0.1002 H   0  0  0  0  0  0  0  0  0  0  0  0
    1.0863    1.7673    0.6293 H   0  0  0  0  0  0  0  0  0  0  0  0
    1.3395   -1.4679    1.8875 H   0  0  0  0  0  0  0  0  0  0  0  0
    1.7112   -1.7305    0.1312 H   0  0  0  0  0  0  0  0  0  0  0  0
    4.3542   -1.3133   -0.6555 H   0  0  0  0  0  0  0  0  0  0  0  0
    4.0674    2.2836    0.2782 H   0  0  0  0  0  0  0  0  0  0  0  0
    0.1508   -2.8474    0.7354 H   0  0  0  0  0  0  0  0  0  0  0  0
   -3.5381   -1.8698   -0.0704 H   0  0  0  0  0  0  0  0  0  0  0  0
  1  2  1  0
  2  3  2  0
  3  4  1  0
  4  5  2  0
  5  6  1  0
  6  7  1  0
  7  8  1  0
  8  9  2  0
  8 10  1  0
  8 11  1  0
  5 12  1  0
 12 13  1  0
 13 14  2  0
 12 15  2  0
 15 16  1  0
 15  2  1  0
  1 17  1  0
  1 18  1  0
  1 19  1  0
  4 20  1  0
  6 21  1  0
  6 22  1  0
 10 23  1  0
 11 24  1  0
 13 25  1  0
 16 26  1  0
M  END
$$$$

     RDKit          3D

 26 26  0  0  0  0  0  0  0  0999 V2000
   -3.1897   -1.9279    0.0386 C   0  0  0  0  0  0  0  0  0  0  0  0
   -1.9658   -1.0832    0.1843 C   0  0  0  0  0  0  0  0  0  0  0  0
   -0.7794   -1.6112    0.5189 N   0  0  0  0  0  0  0  0  0  0  0  0
    0.3394   -0.8577    0.6530 C   0  0  0  0  0  0  0  0  0  0  0  0
    0.2325    0.4935    0.4326 C   0  0  0  0  0  0  0  0  0  0  0  0
    1.4064    1.3636    0.5818 C   0  0  0  0  0  0  0  0  0  0  0  0
    2.5902    0.7462    0.8592 O   0  0  0  0  0  0  0  0  0  0  0  0
    3.2017   -0.2520   -0.3316 P   0  0  0  0  0  5  0  0  0  0  0  0
    2.2171   -0.5945   -1.4138 O   0  0  0  0  0  0  0  0  0  0  0  0
    3.8836   -1.6118    0.4077 O   0  0  0  0  0  0  0  0  0  0  0  0
    4.5175    0.5150   -1.1390 O   0  0  0  0  0  0  0  0  0  0  0  0
   -0.9920    1.0817    0.0828 C   0  0  0  0  0  0  0  0  0  0  0  0
   -1.1396    2.5113   -0.1410 C   0  0  0  0  0  0  0  0  0  0  0  0
   -0.2316    3.3625   -0.0597 O   0  0  0  0  0  0  0  0  0  0  0  0
   -2.0937    0.2653   -0.0384 C   0  0  0  0  0  0  0  0  0  0  0  0
   -3.3449    0.7962   -0.3867 O   0  0  0  0  0  0  0  0  0  0  0  0
   -3.9937   -1.5481    0.7131 H   0  0  0  0  0  0  0  0  0  0  0  0
   -3.0210   -2.9790    0.3158 H   0  0  0  0  0  0  0  0  0  0  0  0
   -3.5840   -1.8774   -1.0081 H   0  0  0  0  0  0  0  0  0  0  0  0
    1.2621   -1.3666    0.9588 H   0  0  0  0  0  0  0  0  0  0  0  0
    1.5241    2.0083   -0.3369 H   0  0  0  0  0  0  0  0  0  0  0  0
    1.1811    2.0924    1.3930 H   0  0  0  0  0  0  0  0  0  0  0  0
    3.2944   -2.3886    0.2000 H   0  0  0  0  0  0  0  0  0  0  0  0
    4.9957   -0.2357   -1.5954 H   0  0  0  0  0  0  0  0  0  0  0  0
   -2.1522    2.8665   -0.4078 H   0  0  0  0  0  0  0  0  0  0  0  0
   -4.1584    0.2312   -0.4811 H   0  0  0  0  0  0  0  0  0  0  0  0
  1  2  1  0
  2  3  2  0
  3  4  1  0
  4  5  2  0
  5  6  1  0
  6  7  1  0
  7  8  1  0
  8  9  2  0
  8 10  1  0
  8 11  1  0
  5 12  1  0
 12 13  1  0
 13 14  2  0
 12 15  2  0
 15 16  1  0
 15  2  1  0
  1 17  1  0
  1 18  1  0
  1 19  1  0
  4 20  1  0
  6 21  1  0
  6 22  1  0
 10 23  1  0
 11 24  1  0
 13 25  1  0
 16 26  1  0
M  END
$$$$

     RDKit          3D

 26 26  0  0  0  0  0  0  0  0999 V2000
   -3.3998    1.6720    0.6405 C   0  0  0  0  0  0  0  0  0  0  0  0
   -2.1320    0.8758    0.4665 C   0  0  0  0  0  0  0  0  0  0  0  0
   -1.0491    1.0731    1.2215 N   0  0  0  0  0  0  0  0  0  0  0  0
    0.0901    0.3736    1.0782 C   0  0  0  0  0  0  0  0  0  0  0  0
    0.2137   -0.6139    0.1178 C   0  0  0  0  0  0  0  0  0  0  0  0
    1.4441   -1.4140   -0.0197 C   0  0  0  0  0  0  0  0  0  0  0  0
    2.4687   -0.9835    0.7833 O   0  0  0  0  0  0  0  0  0  0  0  0
    3.0939    0.5283    0.3755 P   0  0  0  0  0  5  0  0  0  0  0  0
    2.1387    1.3288   -0.4771 O   0  0  0  0  0  0  0  0  0  0  0  0
    3.4753    1.3996    1.7690 O   0  0  0  0  0  0  0  0  0  0  0  0
    4.5116    0.2487   -0.5352 O   0  0  0  0  0  0  0  0  0  0  0  0
   -0.9229   -0.8327   -0.6835 C   0  0  0  0  0  0  0  0  0  0  0  0
   -0.8702   -1.8626   -1.6999 C   0  0  0  0  0  0  0  0  0  0  0  0
    0.1456   -2.5483   -1.8819 O   0  0  0  0  0  0  0  0  0  0  0  0
   -2.0894   -0.0895   -0.5084 C   0  0  0  0  0  0  0  0  0  0  0  0
   -3.1809   -0.3229   -1.3040 O   0  0  0  0  0  0  0  0  0  0  0  0
   -3.5598    1.8984    1.6922 H   0  0  0  0  0  0  0  0  0  0  0  0
   -3.3713    2.5939    0.0447 H   0  0  0  0  0  0  0  0  0  0  0  0
   -4.2461    1.0698    0.2764 H   0  0  0  0  0  0  0  0  0  0  0  0
    0.9311    0.5638    1.7652 H   0  0  0  0  0  0  0  0  0  0  0  0
    1.1874   -2.4725    0.1396 H   0  0  0  0  0  0  0  0  0  0  0  0
    1.7552   -1.2952   -1.1134 H   0  0  0  0  0  0  0  0  0  0  0  0
    3.2939    0.8290    2.5570 H   0  0  0  0  0  0  0  0  0  0  0  0
    5.1878    0.9522   -0.3541 H   0  0  0  0  0  0  0  0  0  0  0  0
   -1.7611   -2.0301   -2.3192 H   0  0  0  0  0  0  0  0  0  0  0  0
   -3.3544   -0.9418   -2.0310 H   0  0  0  0  0  0  0  0  0  0  0  0
  1  2  1  0
  2  3  2  0
  3  4  1  0
  4  5  2  0
  5  6  1  0
  6  7  1  0
  7  8  1  0
  8  9  2  0
  8 10  1  0
  8 11  1  0
  5 12  1  0
 12 13  1  0
 13 14  2  0
 12 15  2  0
 15 16  1  0
 15  2  1  0
  1 17  1  0
  1 18  1  0
  1 19  1  0
  4 20  1  0
  6 21  1  0
  6 22  1  0
 10 23  1  0
 11 24  1  0
 13 25  1  0
 16 26  1  0
M  END
$$$$

     RDKit          3D

 26 26  0  0  0  0  0  0  0  0999 V2000
   -3.4488    1.3662    0.9738 C   0  0  0  0  0  0  0  0  0  0  0  0
   -2.1400    0.9201    0.4101 C   0  0  0  0  0  0  0  0  0  0  0  0
   -1.2063    1.6995   -0.0758 N   0  0  0  0  0  0  0  0  0  0  0  0
   -0.0709    1.1748   -0.6210 C   0  0  0  0  0  0  0  0  0  0  0  0
    0.1484   -0.1855   -0.7033 C   0  0  0  0  0  0  0  0  0  0  0  0
    1.3015   -0.7069   -1.4602 C   0  0  0  0  0  0  0  0  0  0  0  0
    2.4516   -0.6981   -0.7836 O   0  0  0  0  0  0  0  0  0  0  0  0
    3.0808    0.5779    0.0202 P   0  0  0  0  0  5  0  0  0  0  0  0
    2.1840    0.9262    1.2551 O   0  0  0  0  0  0  0  0  0  0  0  0
    4.5549   -0.0096    0.7647 O   0  0  0  0  0  0  0  0  0  0  0  0
    3.4057    1.9806   -0.7646 O   0  0  0  0  0  0  0  0  0  0  0  0
   -0.8393   -1.0172   -0.1843 C   0  0  0  0  0  0  0  0  0  0  0  0
   -0.4159   -2.3895   -0.0647 C   0  0  0  0  0  0  0  0  0  0  0  0
   -1.1516   -3.1244    0.7703 O   0  0  0  0  0  0  0  0  0  0  0  0
   -1.9879   -0.5025    0.3888 C   0  0  0  0  0  0  0  0  0  0  0  0
   -2.9747   -1.2504    0.9308 O   0  0  0  0  0  0  0  0  0  0  0  0
   -3.5611    1.1735    2.0559 H   0  0  0  0  0  0  0  0  0  0  0  0
   -4.3103    0.9516    0.3662 H   0  0  0  0  0  0  0  0  0  0  0  0
   -3.4861    2.4577    0.8119 H   0  0  0  0  0  0  0  0  0  0  0  0
    0.6373    1.8739   -1.0032 H   0  0  0  0  0  0  0  0  0  0  0  0
    1.1624   -1.7353   -1.8832 H   0  0  0  0  0  0  0  0  0  0  0  0
    1.5048   -0.0993   -2.4135 H   0  0  0  0  0  0  0  0  0  0  0  0
    4.4197   -1.0017    0.9934 H   0  0  0  0  0  0  0  0  0  0  0  0
    3.4476    2.7786   -0.1739 H   0  0  0  0  0  0  0  0  0  0  0  0
    0.3172   -2.9449   -0.5009 H   0  0  0  0  0  0  0  0  0  0  0  0
   -3.0228   -2.2154    0.8909 H   0  0  0  0  0  0  0  0  0  0  0  0
  1  2  1  0
  2  3  2  0
  3  4  1  0
  4  5  2  0
  5  6  1  0
  6  7  1  0
  7  8  1  0
  8  9  2  0
  8 10  1  0
  8 11  1  0
  5 12  1  0
 12 13  1  0
 13 14  2  0
 12 15  2  0
 15 16  1  0
 15  2  1  0
  1 17  1  0
  1 18  1  0
  1 19  1  0
  4 20  1  0
  6 21  1  0
  6 22  1  0
 10 23  1  0
 11 24  1  0
 13 25  1  0
 16 26  1  0
M  END
$$$$

     RDKit          3D

 26 26  0  0  0  0  0  0  0  0999 V2000
   -3.9627    0.1424   -1.2942 C   0  0  0  0  0  0  0  0  0  0  0  0
   -2.5313    0.0925   -0.8778 C   0  0  0  0  0  0  0  0  0  0  0  0
   -1.5766    0.1345   -1.8239 N   0  0  0  0  0  0  0  0  0  0  0  0
   -0.2865    0.0892   -1.4462 C   0  0  0  0  0  0  0  0  0  0  0  0
    0.0848    0.0012   -0.1221 C   0  0  0  0  0  0  0  0  0  0  0  0
    1.5108   -0.0527    0.2718 C   0  0  0  0  0  0  0  0  0  0  0  0
    2.2535    0.0151   -0.9211 O   0  0  0  0  0  0  0  0  0  0  0  0
    3.9068   -0.0354   -0.6409 P   0  0  0  0  0  5  0  0  0  0  0  0
    4.6183    0.3489   -1.9072 O   0  0  0  0  0  0  0  0  0  0  0  0
    4.2945    1.0541    0.5627 O   0  0  0  0  0  0  0  0  0  0  0  0
    4.3481   -1.6189   -0.2531 O   0  0  0  0  0  0  0  0  0  0  0  0
   -0.9069   -0.0405    0.8327 C   0  0  0  0  0  0  0  0  0  0  0  0
   -0.5319   -0.1297    2.2282 C   0  0  0  0  0  0  0  0  0  0  0  0
    0.6488   -0.1738    2.6375 O   0  0  0  0  0  0  0  0  0  0  0  0
   -2.2603    0.0049    0.4694 C   0  0  0  0  0  0  0  0  0  0  0  0
   -3.2140   -0.0402    1.4643 O   0  0  0  0  0  0  0  0  0  0  0  0
   -4.5334    0.7296   -0.5394 H   0  0  0  0  0  0  0  0  0  0  0  0
   -4.0004    0.6331   -2.2741 H   0  0  0  0  0  0  0  0  0  0  0  0
   -4.3613   -0.8984   -1.2974 H   0  0  0  0  0  0  0  0  0  0  0  0
    0.5080    0.1226   -2.2096 H   0  0  0  0  0  0  0  0  0  0  0  0
    1.8444    0.7850    0.8830 H   0  0  0  0  0  0  0  0  0  0  0  0
    1.6557   -1.0585    0.7528 H   0  0  0  0  0  0  0  0  0  0  0  0
    3.7124    1.8535    0.4570 H   0  0  0  0  0  0  0  0  0  0  0  0
    4.2800   -1.7804    0.7242 H   0  0  0  0  0  0  0  0  0  0  0  0
   -1.3061   -0.1626    2.9988 H   0  0  0  0  0  0  0  0  0  0  0  0
   -4.1946   -0.0154    1.3247 H   0  0  0  0  0  0  0  0  0  0  0  0
  1  2  1  0
  2  3  2  0
  3  4  1  0
  4  5  2  0
  5  6  1  0
  6  7  1  0
  7  8  1  0
  8  9  2  0
  8 10  1  0
  8 11  1  0
  5 12  1  0
 12 13  1  0
 13 14  2  0
 12 15  2  0
 15 16  1  0
 15  2  1  0
  1 17  1  0
  1 18  1  0
  1 19  1  0
  4 20  1  0
  6 21  1  0
  6 22  1  0
 10 23  1  0
 11 24  1  0
 13 25  1  0
 16 26  1  0
M  END
$$$$

     RDKit          3D

 26 26  0  0  0  0  0  0  0  0999 V2000
   -4.2434    0.5818    0.1027 C   0  0  0  0  0  0  0  0  0  0  0  0
   -2.7606    0.4599    0.0977 C   0  0  0  0  0  0  0  0  0  0  0  0
   -1.9600    1.3884   -0.4371 N   0  0  0  0  0  0  0  0  0  0  0  0
   -0.6390    1.2937   -0.4489 C   0  0  0  0  0  0  0  0  0  0  0  0
   -0.0721    0.1538    0.1344 C   0  0  0  0  0  0  0  0  0  0  0  0
    1.4040    0.0205    0.1371 C   0  0  0  0  0  0  0  0  0  0  0  0
    1.9985    1.1295   -0.4860 O   0  0  0  0  0  0  0  0  0  0  0  0
    3.6782    0.8590   -0.4192 P   0  0  0  0  0  5  0  0  0  0  0  0
    3.9679    0.1032    0.8530 O   0  0  0  0  0  0  0  0  0  0  0  0
    4.5224    2.3132   -0.4085 O   0  0  0  0  0  0  0  0  0  0  0  0
    4.1503   -0.0584   -1.7541 O   0  0  0  0  0  0  0  0  0  0  0  0
   -0.8448   -0.8324    0.6988 C   0  0  0  0  0  0  0  0  0  0  0  0
   -0.2535   -2.0353    1.3141 C   0  0  0  0  0  0  0  0  0  0  0  0
    1.0170   -2.1404    1.3100 O   0  0  0  0  0  0  0  0  0  0  0  0
   -2.2340   -0.6959    0.6915 C   0  0  0  0  0  0  0  0  0  0  0  0
   -3.0928   -1.6331    1.2338 O   0  0  0  0  0  0  0  0  0  0  0  0
   -4.6425   -0.3436   -0.3935 H   0  0  0  0  0  0  0  0  0  0  0  0
   -4.6589    0.6017    1.1284 H   0  0  0  0  0  0  0  0  0  0  0  0
   -4.5798    1.4289   -0.5268 H   0  0  0  0  0  0  0  0  0  0  0  0
    0.0494    2.0117   -0.8659 H   0  0  0  0  0  0  0  0  0  0  0  0
    1.8459   -0.0225    1.1497 H   0  0  0  0  0  0  0  0  0  0  0  0
    1.7339   -0.8575   -0.4391 H   0  0  0  0  0  0  0  0  0  0  0  0
    4.8573    2.5330    0.5156 H   0  0  0  0  0  0  0  0  0  0  0  0
    4.3493   -0.9829   -1.4662 H   0  0  0  0  0  0  0  0  0  0  0  0
   -0.8464   -2.8182    1.7609 H   0  0  0  0  0  0  0  0  0  0  0  0
   -2.7463   -2.4582    1.6591 H   0  0  0  0  0  0  0  0  0  0  0  0
  1  2  1  0
  2  3  2  0
  3  4  1  0
  4  5  2  0
  5  6  1  0
  6  7  1  0
  7  8  1  0
  8  9  2  0
  8 10  1  0
  8 11  1  0
  5 12  1  0
 12 13  1  0
 13 14  2  0
 12 15  2  0
 15 16  1  0
 15  2  1  0
  1 17  1  0
  1 18  1  0
  1 19  1  0
  4 20  1  0
  6 21  1  0
  6 22  1  0
 10 23  1  0
 11 24  1  0
 13 25  1  0
 16 26  1  0
M  END
$$$$

     RDKit          3D

 26 26  0  0  0  0  0  0  0  0999 V2000
   -4.0689   -0.9710    0.1742 C   0  0  0  0  0  0  0  0  0  0  0  0
   -2.6220   -0.6688    0.0788 C   0  0  0  0  0  0  0  0  0  0  0  0
   -1.7487   -1.6766    0.0056 N   0  0  0  0  0  0  0  0  0  0  0  0
   -0.4319   -1.4483   -0.0818 C   0  0  0  0  0  0  0  0  0  0  0  0
    0.0081   -0.1495   -0.0949 C   0  0  0  0  0  0  0  0  0  0  0  0
    1.4695    0.1197   -0.1917 C   0  0  0  0  0  0  0  0  0  0  0  0
    2.1371   -1.0698   -0.2531 O   0  0  0  0  0  0  0  0  0  0  0  0
    3.7936   -0.9376   -0.3650 P   0  0  0  0  0  5  0  0  0  0  0  0
    4.2678   -1.9677   -1.3932 O   0  0  0  0  0  0  0  0  0  0  0  0
    4.2261    0.6260   -0.8733 O   0  0  0  0  0  0  0  0  0  0  0  0
    4.5878   -1.2235    1.0918 O   0  0  0  0  0  0  0  0  0  0  0  0
   -0.8967    0.9244   -0.0187 C   0  0  0  0  0  0  0  0  0  0  0  0
   -0.3724    2.2769   -0.0369 C   0  0  0  0  0  0  0  0  0  0  0  0
   -1.0295    3.3207    0.0220 O   0  0  0  0  0  0  0  0  0  0  0  0
   -2.2501    0.6831    0.0710 C   0  0  0  0  0  0  0  0  0  0  0  0
   -3.2301    1.6430    0.1509 O   0  0  0  0  0  0  0  0  0  0  0  0
   -4.2122   -1.6841    1.0242 H   0  0  0  0  0  0  0  0  0  0  0  0
   -4.6841   -0.0704    0.3217 H   0  0  0  0  0  0  0  0  0  0  0  0
   -4.4114   -1.4472   -0.7656 H   0  0  0  0  0  0  0  0  0  0  0  0
    0.2227   -2.3079   -0.1380 H   0  0  0  0  0  0  0  0  0  0  0  0
    1.5991    0.7310   -1.1294 H   0  0  0  0  0  0  0  0  0  0  0  0
    1.7698    0.7836    0.6404 H   0  0  0  0  0  0  0  0  0  0  0  0
    4.2762    1.1808   -0.0486 H   0  0  0  0  0  0  0  0  0  0  0  0
    4.0261   -1.6834    1.7619 H   0  0  0  0  0  0  0  0  0  0  0  0
    0.7077    2.3914   -0.1096 H   0  0  0  0  0  0  0  0  0  0  0  0
   -3.1337    2.6251    0.1572 H   0  0  0  0  0  0  0  0  0  0  0  0
  1  2  1  0
  2  3  2  0
  3  4  1  0
  4  5  2  0
  5  6  1  0
  6  7  1  0
  7  8  1  0
  8  9  2  0
  8 10  1  0
  8 11  1  0
  5 12  1  0
 12 13  1  0
 13 14  2  0
 12 15  2  0
 15 16  1  0
 15  2  1  0
  1 17  1  0
  1 18  1  0
  1 19  1  0
  4 20  1  0
  6 21  1  0
  6 22  1  0
 10 23  1  0
 11 24  1  0
 13 25  1  0
 16 26  1  0
M  END
$$$$

     RDKit          3D

 26 26  0  0  0  0  0  0  0  0999 V2000
   -4.2137    0.7459    0.1630 C   0  0  0  0  0  0  0  0  0  0  0  0
   -2.7415    0.5615    0.0902 C   0  0  0  0  0  0  0  0  0  0  0  0
   -1.9229    1.6023   -0.0642 N   0  0  0  0  0  0  0  0  0  0  0  0
   -0.5851    1.4857   -0.1354 C   0  0  0  0  0  0  0  0  0  0  0  0
   -0.0303    0.2274   -0.0443 C   0  0  0  0  0  0  0  0  0  0  0  0
    1.4242    0.0334   -0.1149 C   0  0  0  0  0  0  0  0  0  0  0  0
    2.0344    1.2756   -0.2766 O   0  0  0  0  0  0  0  0  0  0  0  0
    3.7015    1.0012   -0.3523 P   0  0  0  0  0  5  0  0  0  0  0  0
    4.3492    1.1024    1.0156 O   0  0  0  0  0  0  0  0  0  0  0  0
    3.9358   -0.5254   -1.0421 O   0  0  0  0  0  0  0  0  0  0  0  0
    4.3448    2.1657   -1.4111 O   0  0  0  0  0  0  0  0  0  0  0  0
   -0.8300   -0.9115    0.1188 C   0  0  0  0  0  0  0  0  0  0  0  0
   -0.2020   -2.2099    0.2093 C   0  0  0  0  0  0  0  0  0  0  0  0
   -0.8901   -3.2424    0.3548 O   0  0  0  0  0  0  0  0  0  0  0  0
   -2.1823   -0.7265    0.1841 C   0  0  0  0  0  0  0  0  0  0  0  0
   -3.0861   -1.7349    0.3406 O   0  0  0  0  0  0  0  0  0  0  0  0
   -4.4725    1.7373   -0.2296 H   0  0  0  0  0  0  0  0  0  0  0  0
   -4.4777    0.7429    1.2567 H   0  0  0  0  0  0  0  0  0  0  0  0
   -4.7586   -0.0778   -0.3555 H   0  0  0  0  0  0  0  0  0  0  0  0
    0.0617    2.3535   -0.2620 H   0  0  0  0  0  0  0  0  0  0  0  0
    1.7172   -0.5818   -1.0005 H   0  0  0  0  0  0  0  0  0  0  0  0
    1.8299   -0.5132    0.7668 H   0  0  0  0  0  0  0  0  0  0  0  0
    4.1772   -1.1920   -0.3228 H   0  0  0  0  0  0  0  0  0  0  0  0
    4.9441    1.7144   -2.0872 H   0  0  0  0  0  0  0  0  0  0  0  0
    0.8831   -2.3296    0.1541 H   0  0  0  0  0  0  0  0  0  0  0  0
   -3.0101   -2.7041    0.4326 H   0  0  0  0  0  0  0  0  0  0  0  0
  1  2  1  0
  2  3  2  0
  3  4  1  0
  4  5  2  0
  5  6  1  0
  6  7  1  0
  7  8  1  0
  8  9  2  0
  8 10  1  0
  8 11  1  0
  5 12  1  0
 12 13  1  0
 13 14  2  0
 12 15  2  0
 15 16  1  0
 15  2  1  0
  1 17  1  0
  1 18  1  0
  1 19  1  0
  4 20  1  0
  6 21  1  0
  6 22  1  0
 10 23  1  0
 11 24  1  0
 13 25  1  0
 16 26  1  0
M  END
$$$$

     RDKit          3D

 26 26  0  0  0  0  0  0  0  0999 V2000
   -2.6464    2.4717   -1.0460 C   0  0  0  0  0  0  0  0  0  0  0  0
   -1.7501    1.4383   -0.4602 C   0  0  0  0  0  0  0  0  0  0  0  0
   -0.8455    1.7487    0.4691 N   0  0  0  0  0  0  0  0  0  0  0  0
   -0.0020    0.8716    1.0421 C   0  0  0  0  0  0  0  0  0  0  0  0
   -0.0704   -0.4386    0.6461 C   0  0  0  0  0  0  0  0  0  0  0  0
    0.7954   -1.4841    1.2092 C   0  0  0  0  0  0  0  0  0  0  0  0
    1.7321   -1.1101    2.1217 O   0  0  0  0  0  0  0  0  0  0  0  0
    2.9545   -0.1123    1.6038 P   0  0  0  0  0  5  0  0  0  0  0  0
    3.2034    0.9414    2.6854 O   0  0  0  0  0  0  0  0  0  0  0  0
    2.6739    0.6410    0.1288 O   0  0  0  0  0  0  0  0  0  0  0  0
    4.4352   -0.9411    1.4639 O   0  0  0  0  0  0  0  0  0  0  0  0
   -1.0053   -0.8074   -0.3237 C   0  0  0  0  0  0  0  0  0  0  0  0
   -1.1610   -2.1779   -0.7840 C   0  0  0  0  0  0  0  0  0  0  0  0
   -0.4814   -3.1574   -0.3784 O   0  0  0  0  0  0  0  0  0  0  0  0
   -1.8632    0.1220   -0.8969 C   0  0  0  0  0  0  0  0  0  0  0  0
   -2.8060   -0.1607   -1.8544 O   0  0  0  0  0  0  0  0  0  0  0  0
   -2.0975    3.3947   -1.2795 H   0  0  0  0  0  0  0  0  0  0  0  0
   -3.0907    2.0864   -1.9942 H   0  0  0  0  0  0  0  0  0  0  0  0
   -3.4169    2.7046   -0.2795 H   0  0  0  0  0  0  0  0  0  0  0  0
    0.6944    1.2219    1.8232 H   0  0  0  0  0  0  0  0  0  0  0  0
    1.2816   -2.0330    0.3408 H   0  0  0  0  0  0  0  0  0  0  0  0
    0.1462   -2.2505    1.6799 H   0  0  0  0  0  0  0  0  0  0  0  0
    3.4175    1.2322   -0.0789 H   0  0  0  0  0  0  0  0  0  0  0  0
    4.8436   -0.7392    0.5954 H   0  0  0  0  0  0  0  0  0  0  0  0
   -1.9045   -2.4501   -1.5368 H   0  0  0  0  0  0  0  0  0  0  0  0
   -3.0370   -1.0122   -2.2859 H   0  0  0  0  0  0  0  0  0  0  0  0
  1  2  1  0
  2  3  2  0
  3  4  1  0
  4  5  2  0
  5  6  1  0
  6  7  1  0
  7  8  1  0
  8  9  2  0
  8 10  1  0
  8 11  1  0
  5 12  1  0
 12 13  1  0
 13 14  2  0
 12 15  2  0
 15 16  1  0
 15  2  1  0
  1 17  1  0
  1 18  1  0
  1 19  1  0
  4 20  1  0
  6 21  1  0
  6 22  1  0
 10 23  1  0
 11 24  1  0
 13 25  1  0
 16 26  1  0
M  END
$$$$

     RDKit          3D

 26 26  0  0  0  0  0  0  0  0999 V2000
    4.1576    0.0243    1.0459 C   0  0  0  0  0  0  0  0  0  0  0  0
    2.6962   -0.1252    0.8172 C   0  0  0  0  0  0  0  0  0  0  0  0
    1.8066    0.0779    1.8378 N   0  0  0  0  0  0  0  0  0  0  0  0
    0.4785    0.0469    1.6475 C   0  0  0  0  0  0  0  0  0  0  0  0
   -0.0745   -0.1713    0.4243 C   0  0  0  0  0  0  0  0  0  0  0  0
   -1.4561    0.1024    0.1737 C   0  0  0  0  0  0  0  0  0  0  0  0
   -2.4921   -0.7410    0.2238 O   0  0  0  0  0  0  0  0  0  0  0  0
   -3.8941    0.1893   -0.1228 P   0  0  0  0  0  5  0  0  0  0  0  0
   -4.5701    0.5888    1.2194 O   0  0  0  0  0  0  0  0  0  0  0  0
   -3.4875    1.6440   -0.8675 O   0  0  0  0  0  0  0  0  0  0  0  0
   -5.0153   -0.6838   -1.0257 O   0  0  0  0  0  0  0  0  0  0  0  0
    0.7652   -0.3752   -0.6517 C   0  0  0  0  0  0  0  0  0  0  0  0
    0.2192   -0.6886   -1.9480 C   0  0  0  0  0  0  0  0  0  0  0  0
   -1.0620   -0.7113   -2.0975 O   0  0  0  0  0  0  0  0  0  0  0  0
    2.1563   -0.3446   -0.3925 C   0  0  0  0  0  0  0  0  0  0  0  0
    3.0027   -0.5628   -1.4595 O   0  0  0  0  0  0  0  0  0  0  0  0
    4.6862    0.0536    0.1042 H   0  0  0  0  0  0  0  0  0  0  0  0
    4.6292   -0.6714    1.7636 H   0  0  0  0  0  0  0  0  0  0  0  0
    4.3238    1.1028    1.4757 H   0  0  0  0  0  0  0  0  0  0  0  0
   -0.1559    0.2417    2.5288 H   0  0  0  0  0  0  0  0  0  0  0  0
   -1.6227    1.0646   -0.4216 H   0  0  0  0  0  0  0  0  0  0  0  0
   -1.7742    0.7382    1.3031 H   0  0  0  0  0  0  0  0  0  0  0  0
   -3.2959    2.3938   -0.2276 H   0  0  0  0  0  0  0  0  0  0  0  0
   -4.8297   -1.6561   -1.0789 H   0  0  0  0  0  0  0  0  0  0  0  0
    0.8390   -0.8897   -2.7977 H   0  0  0  0  0  0  0  0  0  0  0  0
    3.9697   -0.6471   -1.4742 H   0  0  0  0  0  0  0  0  0  0  0  0
  1  2  1  0
  2  3  2  0
  3  4  1  0
  4  5  2  0
  5  6  1  0
  6  7  1  0
  7  8  1  0
  8  9  2  0
  8 10  1  0
  8 11  1  0
  5 12  1  0
 12 13  1  0
 13 14  2  0
 12 15  2  0
 15 16  1  0
 15  2  1  0
  1 17  1  0
  1 18  1  0
  1 19  1  0
  4 20  1  0
  6 21  1  0
  6 22  1  0
 10 23  1  0
 11 24  1  0
 13 25  1  0
 16 26  1  0
M  END
$$$$

     RDKit          3D

 26 26  0  0  0  0  0  0  0  0999 V2000
    3.9832    1.2064   -0.8207 C   0  0  0  0  0  0  0  0  0  0  0  0
    2.5636    0.8572   -0.5567 C   0  0  0  0  0  0  0  0  0  0  0  0
    1.5809    1.6584   -0.8209 N   0  0  0  0  0  0  0  0  0  0  0  0
    0.2534    1.4816   -0.5524 C   0  0  0  0  0  0  0  0  0  0  0  0
   -0.0663    0.2839    0.0803 C   0  0  0  0  0  0  0  0  0  0  0  0
   -1.3880    0.0032    0.5942 C   0  0  0  0  0  0  0  0  0  0  0  0
   -2.4736   -0.0640   -0.1630 O   0  0  0  0  0  0  0  0  0  0  0  0
   -3.8772   -0.2265    0.8507 P   0  0  0  0  0  5  0  0  0  0  0  0
   -3.4484    0.0214    2.2590 O   0  0  0  0  0  0  0  0  0  0  0  0
   -4.8055   -1.5701    0.6368 O   0  0  0  0  0  0  0  0  0  0  0  0
   -4.8550    1.1625    0.3517 O   0  0  0  0  0  0  0  0  0  0  0  0
    0.8809   -0.6008    0.3671 C   0  0  0  0  0  0  0  0  0  0  0  0
    0.5219   -1.9671    0.7949 C   0  0  0  0  0  0  0  0  0  0  0  0
    1.5109   -2.7978    0.7893 O   0  0  0  0  0  0  0  0  0  0  0  0
    2.2509   -0.3327    0.0677 C   0  0  0  0  0  0  0  0  0  0  0  0
    3.1351   -1.3466    0.4264 O   0  0  0  0  0  0  0  0  0  0  0  0
    4.2680    2.1455   -0.5174 H   0  0  0  0  0  0  0  0  0  0  0  0
    4.0520    1.0145   -1.9656 H   0  0  0  0  0  0  0  0  0  0  0  0
    4.5631    0.4013   -0.3524 H   0  0  0  0  0  0  0  0  0  0  0  0
   -0.5472    2.1591   -0.7918 H   0  0  0  0  0  0  0  0  0  0  0  0
   -1.7059    1.1688    1.0102 H   0  0  0  0  0  0  0  0  0  0  0  0
   -1.4818   -0.4089    1.6622 H   0  0  0  0  0  0  0  0  0  0  0  0
   -4.5102   -2.4291    0.9894 H   0  0  0  0  0  0  0  0  0  0  0  0
   -4.0975    1.7833   -0.0226 H   0  0  0  0  0  0  0  0  0  0  0  0
   -0.4535   -2.2990    1.0740 H   0  0  0  0  0  0  0  0  0  0  0  0
    4.1462   -1.3048    0.2170 H   0  0  0  0  0  0  0  0  0  0  0  0
  1  2  1  0
  2  3  2  0
  3  4  1  0
  4  5  2  0
  5  6  1  0
  6  7  1  0
  7  8  1  0
  8  9  2  0
  8 10  1  0
  8 11  1  0
  5 12  1  0
 12 13  1  0
 13 14  2  0
 12 15  2  0
 15 16  1  0
 15  2  1  0
  1 17  1  0
  1 18  1  0
  1 19  1  0
  4 20  1  0
  6 21  1  0
  6 22  1  0
 10 23  1  0
 11 24  1  0
 13 25  1  0
 16 26  1  0
M  END
$$$$

     RDKit          3D

 26 26  0  0  0  0  0  0  0  0999 V2000
   -3.8124    1.8932   -0.3181 C   0  0  0  0  0  0  0  0  0  0  0  0
   -2.4916    1.2463   -0.2136 C   0  0  0  0  0  0  0  0  0  0  0  0
   -1.3624    1.9859   -0.1472 N   0  0  0  0  0  0  0  0  0  0  0  0
   -0.1480    1.4113   -0.0515 C   0  0  0  0  0  0  0  0  0  0  0  0
    0.0333    0.0416   -0.0144 C   0  0  0  0  0  0  0  0  0  0  0  0
    1.3862   -0.5561    0.0933 C   0  0  0  0  0  0  0  0  0  0  0  0
    2.3076    0.4839    0.1372 O   0  0  0  0  0  0  0  0  0  0  0  0
    3.8946   -0.0643    0.2604 P   0  0  0  0  0  5  0  0  0  0  0  0
    4.6327    0.4418   -0.9658 O   0  0  0  0  0  0  0  0  0  0  0  0
    3.9878   -1.7463    0.2340 O   0  0  0  0  0  0  0  0  0  0  0  0
    4.6894    0.5842    1.6062 O   0  0  0  0  0  0  0  0  0  0  0  0
   -1.1056   -0.7319   -0.0810 C   0  0  0  0  0  0  0  0  0  0  0  0
   -1.0231   -2.1912   -0.0504 C   0  0  0  0  0  0  0  0  0  0  0  0
    0.0514   -2.8005    0.0357 O   0  0  0  0  0  0  0  0  0  0  0  0
   -2.3421   -0.1242   -0.1788 C   0  0  0  0  0  0  0  0  0  0  0  0
   -3.4835   -0.9388   -0.2447 O   0  0  0  0  0  0  0  0  0  0  0  0
   -4.1399    1.8853   -1.3704 H   0  0  0  0  0  0  0  0  0  0  0  0
   -3.7018    2.9622   -0.0185 H   0  0  0  0  0  0  0  0  0  0  0  0
   -4.5724    1.4539    0.3629 H   0  0  0  0  0  0  0  0  0  0  0  0
    0.7532    2.0208    0.0011 H   0  0  0  0  0  0  0  0  0  0  0  0
    1.4155   -1.1810    1.0091 H   0  0  0  0  0  0  0  0  0  0  0  0
    1.5881   -1.1628   -0.7995 H   0  0  0  0  0  0  0  0  0  0  0  0
    4.1235   -2.1527    1.1029 H   0  0  0  0  0  0  0  0  0  0  0  0
    5.6478    0.5564    1.4123 H   0  0  0  0  0  0  0  0  0  0  0  0
   -1.9311   -2.7909   -0.1041 H   0  0  0  0  0  0  0  0  0  0  0  0
   -4.3971   -0.5262   -0.3164 H   0  0  0  0  0  0  0  0  0  0  0  0
  1  2  1  0
  2  3  2  0
  3  4  1  0
  4  5  2  0
  5  6  1  0
  6  7  1  0
  7  8  1  0
  8  9  2  0
  8 10  1  0
  8 11  1  0
  5 12  1  0
 12 13  1  0
 13 14  2  0
 12 15  2  0
 15 16  1  0
 15  2  1  0
  1 17  1  0
  1 18  1  0
  1 19  1  0
  4 20  1  0
  6 21  1  0
  6 22  1  0
 10 23  1  0
 11 24  1  0
 13 25  1  0
 16 26  1  0
M  END
$$$$

     RDKit          3D

 26 26  0  0  0  0  0  0  0  0999 V2000
   -3.6630    1.0346   -0.6509 C   0  0  0  0  0  0  0  0  0  0  0  0
   -2.2793    0.5612   -0.3228 C   0  0  0  0  0  0  0  0  0  0  0  0
   -1.3415    1.3695    0.1672 N   0  0  0  0  0  0  0  0  0  0  0  0
   -0.0833    0.9797    0.4749 C   0  0  0  0  0  0  0  0  0  0  0  0
    0.2885   -0.3249    0.2827 C   0  0  0  0  0  0  0  0  0  0  0  0
    1.6093   -0.8807    0.6109 C   0  0  0  0  0  0  0  0  0  0  0  0
    2.5660   -0.0034    1.0536 O   0  0  0  0  0  0  0  0  0  0  0  0
    2.9734    1.1009   -0.1278 P   0  0  0  0  0  5  0  0  0  0  0  0
    2.0163    1.0290   -1.2934 O   0  0  0  0  0  0  0  0  0  0  0  0
    4.5354    0.7406   -0.7698 O   0  0  0  0  0  0  0  0  0  0  0  0
    3.1050    2.6457    0.5320 O   0  0  0  0  0  0  0  0  0  0  0  0
   -0.6641   -1.1989   -0.2271 C   0  0  0  0  0  0  0  0  0  0  0  0
   -0.3135   -2.5843   -0.4435 C   0  0  0  0  0  0  0  0  0  0  0  0
   -1.1653   -3.3839   -0.9032 O   0  0  0  0  0  0  0  0  0  0  0  0
   -1.9483   -0.7589   -0.5306 C   0  0  0  0  0  0  0  0  0  0  0  0
   -2.8372   -1.6947   -1.0348 O   0  0  0  0  0  0  0  0  0  0  0  0
   -3.6323    2.1131   -0.9237 H   0  0  0  0  0  0  0  0  0  0  0  0
   -4.3478    0.9513    0.2073 H   0  0  0  0  0  0  0  0  0  0  0  0
   -4.0380    0.4840   -1.5353 H   0  0  0  0  0  0  0  0  0  0  0  0
    0.6116    1.7205    0.8940 H   0  0  0  0  0  0  0  0  0  0  0  0
    2.0176   -1.3829   -0.3068 H   0  0  0  0  0  0  0  0  0  0  0  0
    1.5288   -1.6647    1.4286 H   0  0  0  0  0  0  0  0  0  0  0  0
    5.1623    1.0140   -0.0524 H   0  0  0  0  0  0  0  0  0  0  0  0
    3.0052    2.5734    1.5008 H   0  0  0  0  0  0  0  0  0  0  0  0
    0.6787   -2.9166   -0.2069 H   0  0  0  0  0  0  0  0  0  0  0  0
   -3.7846   -1.5236   -1.2947 H   0  0  0  0  0  0  0  0  0  0  0  0
  1  2  1  0
  2  3  2  0
  3  4  1  0
  4  5  2  0
  5  6  1  0
  6  7  1  0
  7  8  1  0
  8  9  2  0
  8 10  1  0
  8 11  1  0
  5 12  1  0
 12 13  1  0
 13 14  2  0
 12 15  2  0
 15 16  1  0
 15  2  1  0
  1 17  1  0
  1 18  1  0
  1 19  1  0
  4 20  1  0
  6 21  1  0
  6 22  1  0
 10 23  1  0
 11 24  1  0
 13 25  1  0
 16 26  1  0
M  END
$$$$

     RDKit          3D

 26 26  0  0  0  0  0  0  0  0999 V2000
   -3.9236   -0.9745   -1.4505 C   0  0  0  0  0  0  0  0  0  0  0  0
   -2.5294   -0.6552   -0.9804 C   0  0  0  0  0  0  0  0  0  0  0  0
   -1.4533   -1.1876   -1.5820 N   0  0  0  0  0  0  0  0  0  0  0  0
   -0.2142   -0.9020   -1.1620 C   0  0  0  0  0  0  0  0  0  0  0  0
    0.0560   -0.0598   -0.1045 C   0  0  0  0  0  0  0  0  0  0  0  0
    1.4682    0.2222    0.3204 C   0  0  0  0  0  0  0  0  0  0  0  0
    2.3755   -0.4575   -0.4727 O   0  0  0  0  0  0  0  0  0  0  0  0
    3.9377   -0.0999    0.0539 P   0  0  0  0  0  5  0  0  0  0  0  0
    4.8123   -1.3054   -0.3057 O   0  0  0  0  0  0  0  0  0  0  0  0
    4.5507    1.2922   -0.6648 O   0  0  0  0  0  0  0  0  0  0  0  0
    3.9623    0.0016    1.7467 O   0  0  0  0  0  0  0  0  0  0  0  0
   -1.0216    0.5016    0.5328 C   0  0  0  0  0  0  0  0  0  0  0  0
   -0.8132    1.3939    1.6490 C   0  0  0  0  0  0  0  0  0  0  0  0
   -1.7932    1.9024    2.2261 O   0  0  0  0  0  0  0  0  0  0  0  0
   -2.3057    0.1934    0.0823 C   0  0  0  0  0  0  0  0  0  0  0  0
   -3.4081    0.7616    0.7269 O   0  0  0  0  0  0  0  0  0  0  0  0
   -4.5095   -0.0721   -1.6359 H   0  0  0  0  0  0  0  0  0  0  0  0
   -3.8330   -1.6157   -2.3322 H   0  0  0  0  0  0  0  0  0  0  0  0
   -4.3733   -1.5737   -0.6126 H   0  0  0  0  0  0  0  0  0  0  0  0
    0.6682   -1.3353   -1.6512 H   0  0  0  0  0  0  0  0  0  0  0  0
    1.6713    1.3146    0.2942 H   0  0  0  0  0  0  0  0  0  0  0  0
    1.6467   -0.1145    1.3715 H   0  0  0  0  0  0  0  0  0  0  0  0
    5.5415    1.2720   -0.5174 H   0  0  0  0  0  0  0  0  0  0  0  0
    3.6520   -0.8784    2.0821 H   0  0  0  0  0  0  0  0  0  0  0  0
    0.1756    1.6187    1.9803 H   0  0  0  0  0  0  0  0  0  0  0  0
   -4.3399    0.5425    0.4057 H   0  0  0  0  0  0  0  0  0  0  0  0
  1  2  1  0
  2  3  2  0
  3  4  1  0
  4  5  2  0
  5  6  1  0
  6  7  1  0
  7  8  1  0
  8  9  2  0
  8 10  1  0
  8 11  1  0
  5 12  1  0
 12 13  1  0
 13 14  2  0
 12 15  2  0
 15 16  1  0
 15  2  1  0
  1 17  1  0
  1 18  1  0
  1 19  1  0
  4 20  1  0
  6 21  1  0
  6 22  1  0
 10 23  1  0
 11 24  1  0
 13 25  1  0
 16 26  1  0
M  END
$$$$

     RDKit          3D

 26 26  0  0  0  0  0  0  0  0999 V2000
   -4.1309    0.9909    0.5904 C   0  0  0  0  0  0  0  0  0  0  0  0
   -2.6774    0.7208    0.3618 C   0  0  0  0  0  0  0  0  0  0  0  0
   -1.7843    1.6967    0.4442 N   0  0  0  0  0  0  0  0  0  0  0  0
   -0.4686    1.5127    0.2490 C   0  0  0  0  0  0  0  0  0  0  0  0
   -0.0341    0.2463   -0.0507 C   0  0  0  0  0  0  0  0  0  0  0  0
    1.3978    0.0007   -0.2720 C   0  0  0  0  0  0  0  0  0  0  0  0
    2.1661    1.1547   -0.1398 O   0  0  0  0  0  0  0  0  0  0  0  0
    3.7806    0.7325   -0.4176 P   0  0  0  0  0  5  0  0  0  0  0  0
    4.4004    1.8862   -1.2106 O   0  0  0  0  0  0  0  0  0  0  0  0
    3.8202   -0.6359   -1.3705 O   0  0  0  0  0  0  0  0  0  0  0  0
    4.5915    0.5255    1.0521 O   0  0  0  0  0  0  0  0  0  0  0  0
   -0.9142   -0.8327   -0.1547 C   0  0  0  0  0  0  0  0  0  0  0  0
   -0.4040   -2.1653   -0.4766 C   0  0  0  0  0  0  0  0  0  0  0  0
   -1.1086   -3.1643   -0.5863 O   0  0  0  0  0  0  0  0  0  0  0  0
   -2.2422   -0.5783    0.0556 C   0  0  0  0  0  0  0  0  0  0  0  0
   -3.2107   -1.5372   -0.0143 O   0  0  0  0  0  0  0  0  0  0  0  0
   -4.2278    1.6461    1.4759 H   0  0  0  0  0  0  0  0  0  0  0  0
   -4.6820    0.0471    0.6967 H   0  0  0  0  0  0  0  0  0  0  0  0
   -4.5138    1.5663   -0.2784 H   0  0  0  0  0  0  0  0  0  0  0  0
    0.2409    2.3583    0.3282 H   0  0  0  0  0  0  0  0  0  0  0  0
    1.4921   -0.4334   -1.3106 H   0  0  0  0  0  0  0  0  0  0  0  0
    1.8089   -0.7762    0.3990 H   0  0  0  0  0  0  0  0  0  0  0  0
    3.9897   -1.4496   -0.8187 H   0  0  0  0  0  0  0  0  0  0  0  0
    5.2253    1.2660    1.1560 H   0  0  0  0  0  0  0  0  0  0  0  0
    0.6831   -2.2899   -0.6325 H   0  0  0  0  0  0  0  0  0  0  0  0
   -3.1980   -2.4880   -0.2013 H   0  0  0  0  0  0  0  0  0  0  0  0
  1  2  1  0
  2  3  2  0
  3  4  1  0
  4  5  2  0
  5  6  1  0
  6  7  1  0
  7  8  1  0
  8  9  2  0
  8 10  1  0
  8 11  1  0
  5 12  1  0
 12 13  1  0
 13 14  2  0
 12 15  2  0
 15 16  1  0
 15  2  1  0
  1 17  1  0
  1 18  1  0
  1 19  1  0
  4 20  1  0
  6 21  1  0
  6 22  1  0
 10 23  1  0
 11 24  1  0
 13 25  1  0
 16 26  1  0
M  END
$$$$

     RDKit          3D

 26 26  0  0  0  0  0  0  0  0999 V2000
   -3.4695    1.0011   -1.0863 C   0  0  0  0  0  0  0  0  0  0  0  0
   -2.1289    0.4410   -0.7286 C   0  0  0  0  0  0  0  0  0  0  0  0
   -1.0602    0.5787   -1.4961 N   0  0  0  0  0  0  0  0  0  0  0  0
    0.1436    0.0524   -1.1316 C   0  0  0  0  0  0  0  0  0  0  0  0
    0.3206   -0.6445    0.0406 C   0  0  0  0  0  0  0  0  0  0  0  0
    1.5830   -1.2211    0.4626 C   0  0  0  0  0  0  0  0  0  0  0  0
    2.6845   -1.0702   -0.3001 O   0  0  0  0  0  0  0  0  0  0  0  0
    3.3188    0.4133   -0.5839 P   0  0  0  0  0  5  0  0  0  0  0  0
    3.6327    0.5238   -2.0602 O   0  0  0  0  0  0  0  0  0  0  0  0
    2.3914    1.7343   -0.1455 O   0  0  0  0  0  0  0  0  0  0  0  0
    4.8671    0.5711    0.1674 O   0  0  0  0  0  0  0  0  0  0  0  0
   -0.8006   -0.7851    0.8358 C   0  0  0  0  0  0  0  0  0  0  0  0
   -0.7831   -1.5154    2.1078 C   0  0  0  0  0  0  0  0  0  0  0  0
    0.2355   -2.0631    2.5848 O   0  0  0  0  0  0  0  0  0  0  0  0
   -2.0241   -0.2435    0.4536 C   0  0  0  0  0  0  0  0  0  0  0  0
   -3.1574   -0.3844    1.2573 O   0  0  0  0  0  0  0  0  0  0  0  0
   -3.8434    1.6038   -0.2496 H   0  0  0  0  0  0  0  0  0  0  0  0
   -3.4057    1.6596   -1.9730 H   0  0  0  0  0  0  0  0  0  0  0  0
   -4.1512    0.1435   -1.2504 H   0  0  0  0  0  0  0  0  0  0  0  0
    0.9746    0.1943   -1.8294 H   0  0  0  0  0  0  0  0  0  0  0  0
    1.7640   -0.8339    1.5275 H   0  0  0  0  0  0  0  0  0  0  0  0
    1.4426   -2.3249    0.6162 H   0  0  0  0  0  0  0  0  0  0  0  0
    2.0360    2.2469   -0.9193 H   0  0  0  0  0  0  0  0  0  0  0  0
    5.1944    1.5107    0.0251 H   0  0  0  0  0  0  0  0  0  0  0  0
   -1.7141   -1.5899    2.6796 H   0  0  0  0  0  0  0  0  0  0  0  0
   -4.0507    0.0014    0.9955 H   0  0  0  0  0  0  0  0  0  0  0  0
  1  2  1  0
  2  3  2  0
  3  4  1  0
  4  5  2  0
  5  6  1  0
  6  7  1  0
  7  8  1  0
  8  9  2  0
  8 10  1  0
  8 11  1  0
  5 12  1  0
 12 13  1  0
 13 14  2  0
 12 15  2  0
 15 16  1  0
 15  2  1  0
  1 17  1  0
  1 18  1  0
  1 19  1  0
  4 20  1  0
  6 21  1  0
  6 22  1  0
 10 23  1  0
 11 24  1  0
 13 25  1  0
 16 26  1  0
M  END
$$$$

     RDKit          3D

 26 26  0  0  0  0  0  0  0  0999 V2000
   -4.1065   -1.0822   -0.3033 C   0  0  0  0  0  0  0  0  0  0  0  0
   -2.6423   -0.7472   -0.1650 C   0  0  0  0  0  0  0  0  0  0  0  0
   -1.7004   -1.6780   -0.3415 N   0  0  0  0  0  0  0  0  0  0  0  0
   -0.4028   -1.3706   -0.2162 C   0  0  0  0  0  0  0  0  0  0  0  0
    0.0016   -0.0693    0.1023 C   0  0  0  0  0  0  0  0  0  0  0  0
    1.4293    0.2778    0.2546 C   0  0  0  0  0  0  0  0  0  0  0  0
    2.1637   -0.8886   -0.0010 O   0  0  0  0  0  0  0  0  0  0  0  0
    3.8117   -0.6439    0.1359 P   0  0  0  0  0  5  0  0  0  0  0  0
    4.3479   -1.0686    1.4869 O   0  0  0  0  0  0  0  0  0  0  0  0
    4.5628   -1.6612   -1.0162 O   0  0  0  0  0  0  0  0  0  0  0  0
    4.2804    0.9289   -0.2302 O   0  0  0  0  0  0  0  0  0  0  0  0
   -0.9592    0.8949    0.2854 C   0  0  0  0  0  0  0  0  0  0  0  0
   -0.5718    2.2405    0.6060 C   0  0  0  0  0  0  0  0  0  0  0  0
    0.6097    2.6092    0.7377 O   0  0  0  0  0  0  0  0  0  0  0  0
   -2.3090    0.5597    0.1516 C   0  0  0  0  0  0  0  0  0  0  0  0
   -3.3411    1.4569    0.3167 O   0  0  0  0  0  0  0  0  0  0  0  0
   -4.3175   -1.1845   -1.3791 H   0  0  0  0  0  0  0  0  0  0  0  0
   -4.2123   -2.0926    0.1653 H   0  0  0  0  0  0  0  0  0  0  0  0
   -4.6969   -0.3327    0.2209 H   0  0  0  0  0  0  0  0  0  0  0  0
    0.3889   -2.0984   -0.3519 H   0  0  0  0  0  0  0  0  0  0  0  0
    1.7287    1.0059   -0.5126 H   0  0  0  0  0  0  0  0  0  0  0  0
    1.6846    0.6739    1.2689 H   0  0  0  0  0  0  0  0  0  0  0  0
    4.1703   -2.5827   -0.9202 H   0  0  0  0  0  0  0  0  0  0  0  0
    4.5679    1.4459    0.5587 H   0  0  0  0  0  0  0  0  0  0  0  0
   -1.3249    3.0000    0.7474 H   0  0  0  0  0  0  0  0  0  0  0  0
   -3.1629    2.4069    0.5444 H   0  0  0  0  0  0  0  0  0  0  0  0
  1  2  1  0
  2  3  2  0
  3  4  1  0
  4  5  2  0
  5  6  1  0
  6  7  1  0
  7  8  1  0
  8  9  2  0
  8 10  1  0
  8 11  1  0
  5 12  1  0
 12 13  1  0
 13 14  2  0
 12 15  2  0
 15 16  1  0
 15  2  1  0
  1 17  1  0
  1 18  1  0
  1 19  1  0
  4 20  1  0
  6 21  1  0
  6 22  1  0
 10 23  1  0
 11 24  1  0
 13 25  1  0
 16 26  1  0
M  END
$$$$

     RDKit          3D

 26 26  0  0  0  0  0  0  0  0999 V2000
    4.1951   -0.1064   -0.9315 C   0  0  0  0  0  0  0  0  0  0  0  0
    2.7401    0.0991   -0.6783 C   0  0  0  0  0  0  0  0  0  0  0  0
    2.0061    0.9382   -1.4599 N   0  0  0  0  0  0  0  0  0  0  0  0
    0.6630    1.1176   -1.2543 C   0  0  0  0  0  0  0  0  0  0  0  0
    0.0870    0.4198   -0.2276 C   0  0  0  0  0  0  0  0  0  0  0  0
   -1.3290    0.6490    0.1067 C   0  0  0  0  0  0  0  0  0  0  0  0
   -2.1985   -0.0744   -0.6988 O   0  0  0  0  0  0  0  0  0  0  0  0
   -3.7964    0.1826   -0.2725 P   0  0  0  0  0  5  0  0  0  0  0  0
   -4.6987   -0.5798   -1.2722 O   0  0  0  0  0  0  0  0  0  0  0  0
   -4.2594    1.8339   -0.4306 O   0  0  0  0  0  0  0  0  0  0  0  0
   -4.1358   -0.2715    1.3035 O   0  0  0  0  0  0  0  0  0  0  0  0
    0.8434   -0.4545    0.5897 C   0  0  0  0  0  0  0  0  0  0  0  0
    0.0714   -1.3491    1.4672 C   0  0  0  0  0  0  0  0  0  0  0  0
    0.5845   -2.3399    1.9907 O   0  0  0  0  0  0  0  0  0  0  0  0
    2.1761   -0.6139    0.3549 C   0  0  0  0  0  0  0  0  0  0  0  0
    2.9484   -1.4609    1.1019 O   0  0  0  0  0  0  0  0  0  0  0  0
    4.3640   -1.1870   -1.1793 H   0  0  0  0  0  0  0  0  0  0  0  0
    4.4500    0.4480   -1.8415 H   0  0  0  0  0  0  0  0  0  0  0  0
    4.7417    0.2174   -0.0027 H   0  0  0  0  0  0  0  0  0  0  0  0
    0.1541    1.8025   -1.9212 H   0  0  0  0  0  0  0  0  0  0  0  0
   -1.5327    0.9473    1.1143 H   0  0  0  0  0  0  0  0  0  0  0  0
   -1.5005    1.7392   -0.4584 H   0  0  0  0  0  0  0  0  0  0  0  0
   -3.7863    2.3615    0.2339 H   0  0  0  0  0  0  0  0  0  0  0  0
   -4.5210   -1.1907    1.3833 H   0  0  0  0  0  0  0  0  0  0  0  0
   -1.0246   -1.0844    1.6249 H   0  0  0  0  0  0  0  0  0  0  0  0
    2.7579   -2.0437    1.8494 H   0  0  0  0  0  0  0  0  0  0  0  0
  1  2  1  0
  2  3  2  0
  3  4  1  0
  4  5  2  0
  5  6  1  0
  6  7  1  0
  7  8  1  0
  8  9  2  0
  8 10  1  0
  8 11  1  0
  5 12  1  0
 12 13  1  0
 13 14  2  0
 12 15  2  0
 15 16  1  0
 15  2  1  0
  1 17  1  0
  1 18  1  0
  1 19  1  0
  4 20  1  0
  6 21  1  0
  6 22  1  0
 10 23  1  0
 11 24  1  0
 13 25  1  0
 16 26  1  0
M  END
$$$$

     RDKit          3D

 26 26  0  0  0  0  0  0  0  0999 V2000
   -4.1429    0.5598    0.6671 C   0  0  0  0  0  0  0  0  0  0  0  0
   -2.6890    0.4431    0.3819 C   0  0  0  0  0  0  0  0  0  0  0  0
   -1.9331    1.4933    0.0328 N   0  0  0  0  0  0  0  0  0  0  0  0
   -0.6233    1.3505   -0.2172 C   0  0  0  0  0  0  0  0  0  0  0  0
   -0.0124    0.1091   -0.1214 C   0  0  0  0  0  0  0  0  0  0  0  0
    1.4519   -0.0340   -0.3990 C   0  0  0  0  0  0  0  0  0  0  0  0
    1.9691    1.2343   -0.7434 O   0  0  0  0  0  0  0  0  0  0  0  0
    3.6071    1.0235   -1.0445 P   0  0  0  0  0  5  0  0  0  0  0  0
    3.8411    0.2467   -2.3333 O   0  0  0  0  0  0  0  0  0  0  0  0
    4.3398    2.5386   -1.1847 O   0  0  0  0  0  0  0  0  0  0  0  0
    4.3356    0.2222    0.2444 O   0  0  0  0  0  0  0  0  0  0  0  0
   -0.7496   -0.9917    0.2326 C   0  0  0  0  0  0  0  0  0  0  0  0
   -0.1776   -2.3185    0.3493 C   0  0  0  0  0  0  0  0  0  0  0  0
    1.0412   -2.4781    0.1204 O   0  0  0  0  0  0  0  0  0  0  0  0
   -2.0942   -0.8138    0.4837 C   0  0  0  0  0  0  0  0  0  0  0  0
   -2.8834   -1.8832    0.8433 O   0  0  0  0  0  0  0  0  0  0  0  0
   -4.5489    1.2616   -0.1133 H   0  0  0  0  0  0  0  0  0  0  0  0
   -4.3016    0.9600    1.6821 H   0  0  0  0  0  0  0  0  0  0  0  0
   -4.6608   -0.3990    0.4955 H   0  0  0  0  0  0  0  0  0  0  0  0
   -0.0077    2.1982   -0.5001 H   0  0  0  0  0  0  0  0  0  0  0  0
    1.9556   -0.4145    0.4879 H   0  0  0  0  0  0  0  0  0  0  0  0
    1.6542   -0.7233   -1.2409 H   0  0  0  0  0  0  0  0  0  0  0  0
    3.9322    3.1357   -0.5353 H   0  0  0  0  0  0  0  0  0  0  0  0
    4.0829   -0.7246    0.2549 H   0  0  0  0  0  0  0  0  0  0  0  0
   -0.7420   -3.1673    0.6205 H   0  0  0  0  0  0  0  0  0  0  0  0
   -2.6442   -2.8285    0.9638 H   0  0  0  0  0  0  0  0  0  0  0  0
  1  2  1  0
  2  3  2  0
  3  4  1  0
  4  5  2  0
  5  6  1  0
  6  7  1  0
  7  8  1  0
  8  9  2  0
  8 10  1  0
  8 11  1  0
  5 12  1  0
 12 13  1  0
 13 14  2  0
 12 15  2  0
 15 16  1  0
 15  2  1  0
  1 17  1  0
  1 18  1  0
  1 19  1  0
  4 20  1  0
  6 21  1  0
  6 22  1  0
 10 23  1  0
 11 24  1  0
 13 25  1  0
 16 26  1  0
M  END
$$$$

     RDKit          3D

 26 26  0  0  0  0  0  0  0  0999 V2000
   -3.9604    0.4027   -1.4113 C   0  0  0  0  0  0  0  0  0  0  0  0
   -2.5475    0.2537   -0.9727 C   0  0  0  0  0  0  0  0  0  0  0  0
   -1.5282    0.2555   -1.8819 N   0  0  0  0  0  0  0  0  0  0  0  0
   -0.2657    0.1184   -1.4461 C   0  0  0  0  0  0  0  0  0  0  0  0
    0.0062   -0.0224   -0.1030 C   0  0  0  0  0  0  0  0  0  0  0  0
    1.3939   -0.1706    0.3433 C   0  0  0  0  0  0  0  0  0  0  0  0
    2.2334   -0.1365   -0.7658 O   0  0  0  0  0  0  0  0  0  0  0  0
    3.8559   -0.3017   -0.3341 P   0  0  0  0  0  5  0  0  0  0  0  0
    4.1410   -1.7696   -0.1296 O   0  0  0  0  0  0  0  0  0  0  0  0
    4.8834    0.3341   -1.5072 O   0  0  0  0  0  0  0  0  0  0  0  0
    4.0742    0.5809    1.1058 O   0  0  0  0  0  0  0  0  0  0  0  0
   -0.9980   -0.0290    0.8473 C   0  0  0  0  0  0  0  0  0  0  0  0
   -0.7314   -0.1751    2.2559 C   0  0  0  0  0  0  0  0  0  0  0  0
    0.4329   -0.3057    2.7063 O   0  0  0  0  0  0  0  0  0  0  0  0
   -2.2954    0.1132    0.3845 C   0  0  0  0  0  0  0  0  0  0  0  0
   -3.3682    0.1208    1.2347 O   0  0  0  0  0  0  0  0  0  0  0  0
   -4.4739   -0.5532   -1.5639 H   0  0  0  0  0  0  0  0  0  0  0  0
   -4.5292    1.0820   -0.7120 H   0  0  0  0  0  0  0  0  0  0  0  0
   -3.9216    0.9785   -2.3731 H   0  0  0  0  0  0  0  0  0  0  0  0
    0.5340    0.1224   -2.1891 H   0  0  0  0  0  0  0  0  0  0  0  0
    1.7410    0.6370    1.0188 H   0  0  0  0  0  0  0  0  0  0  0  0
    1.4905   -1.1782    0.8191 H   0  0  0  0  0  0  0  0  0  0  0  0
    4.7548   -0.1705   -2.3649 H   0  0  0  0  0  0  0  0  0  0  0  0
    4.0172   -0.0470    1.8538 H   0  0  0  0  0  0  0  0  0  0  0  0
   -1.5383   -0.1757    2.9680 H   0  0  0  0  0  0  0  0  0  0  0  0
   -3.4008    0.0358    2.2172 H   0  0  0  0  0  0  0  0  0  0  0  0
  1  2  1  0
  2  3  2  0
  3  4  1  0
  4  5  2  0
  5  6  1  0
  6  7  1  0
  7  8  1  0
  8  9  2  0
  8 10  1  0
  8 11  1  0
  5 12  1  0
 12 13  1  0
 13 14  2  0
 12 15  2  0
 15 16  1  0
 15  2  1  0
  1 17  1  0
  1 18  1  0
  1 19  1  0
  4 20  1  0
  6 21  1  0
  6 22  1  0
 10 23  1  0
 11 24  1  0
 13 25  1  0
 16 26  1  0
M  END
$$$$

     RDKit          3D

 26 26  0  0  0  0  0  0  0  0999 V2000
    4.1284   -1.0524   -0.1005 C   0  0  0  0  0  0  0  0  0  0  0  0
    2.6688   -0.7787   -0.0566 C   0  0  0  0  0  0  0  0  0  0  0  0
    1.7488   -1.7416   -0.0523 N   0  0  0  0  0  0  0  0  0  0  0  0
    0.4345   -1.5293   -0.0135 C   0  0  0  0  0  0  0  0  0  0  0  0
    0.0148   -0.2008    0.0248 C   0  0  0  0  0  0  0  0  0  0  0  0
   -1.4317    0.0545    0.0679 C   0  0  0  0  0  0  0  0  0  0  0  0
   -2.1690   -1.1520    0.0625 O   0  0  0  0  0  0  0  0  0  0  0  0
   -3.8092   -0.7441    0.1139 P   0  0  0  0  0  5  0  0  0  0  0  0
   -4.3498   -0.8757    1.5280 O   0  0  0  0  0  0  0  0  0  0  0  0
   -4.0050    0.8929   -0.3256 O   0  0  0  0  0  0  0  0  0  0  0  0
   -4.6339   -1.7471   -0.9447 O   0  0  0  0  0  0  0  0  0  0  0  0
    0.8953    0.8613    0.0235 C   0  0  0  0  0  0  0  0  0  0  0  0
    0.4451    2.2455    0.0637 C   0  0  0  0  0  0  0  0  0  0  0  0
   -0.7887    2.5016    0.1013 O   0  0  0  0  0  0  0  0  0  0  0  0
    2.2328    0.5400   -0.0181 C   0  0  0  0  0  0  0  0  0  0  0  0
    3.1910    1.5362   -0.0228 O   0  0  0  0  0  0  0  0  0  0  0  0
    4.6899   -0.3925    0.5914 H   0  0  0  0  0  0  0  0  0  0  0  0
    4.4599   -0.8183   -1.1403 H   0  0  0  0  0  0  0  0  0  0  0  0
    4.3086   -2.1301    0.0862 H   0  0  0  0  0  0  0  0  0  0  0  0
   -0.2781   -2.3461   -0.0116 H   0  0  0  0  0  0  0  0  0  0  0  0
   -1.7576    0.5768    0.9835 H   0  0  0  0  0  0  0  0  0  0  0  0
   -1.7172    0.5988   -0.8692 H   0  0  0  0  0  0  0  0  0  0  0  0
   -3.7177    1.4866    0.3883 H   0  0  0  0  0  0  0  0  0  0  0  0
   -4.7230   -1.3798   -1.8602 H   0  0  0  0  0  0  0  0  0  0  0  0
    1.1226    3.0842    0.0632 H   0  0  0  0  0  0  0  0  0  0  0  0
    3.0404    2.5102    0.0012 H   0  0  0  0  0  0  0  0  0  0  0  0
  1  2  1  0
  2  3  2  0
  3  4  1  0
  4  5  2  0
  5  6  1  0
  6  7  1  0
  7  8  1  0
  8  9  2  0
  8 10  1  0
  8 11  1  0
  5 12  1  0
 12 13  1  0
 13 14  2  0
 12 15  2  0
 15 16  1  0
 15  2  1  0
  1 17  1  0
  1 18  1  0
  1 19  1  0
  4 20  1  0
  6 21  1  0
  6 22  1  0
 10 23  1  0
 11 24  1  0
 13 25  1  0
 16 26  1  0
M  END
$$$$

     RDKit          3D

 26 26  0  0  0  0  0  0  0  0999 V2000
   -4.1407   -0.7721    0.1802 C   0  0  0  0  0  0  0  0  0  0  0  0
   -2.6506   -0.5613    0.1048 C   0  0  0  0  0  0  0  0  0  0  0  0
   -1.7851   -1.5819    0.2129 N   0  0  0  0  0  0  0  0  0  0  0  0
   -0.4711   -1.3077    0.1346 C   0  0  0  0  0  0  0  0  0  0  0  0
    0.0311   -0.0327   -0.0509 C   0  0  0  0  0  0  0  0  0  0  0  0
    1.4875    0.2348   -0.1328 C   0  0  0  0  0  0  0  0  0  0  0  0
    2.1487   -0.9782    0.0074 O   0  0  0  0  0  0  0  0  0  0  0  0
    3.8278   -0.7910   -0.0710 P   0  0  0  0  0  5  0  0  0  0  0  0
    4.2828   -0.5014   -1.4727 O   0  0  0  0  0  0  0  0  0  0  0  0
    4.2767    0.4366    1.0080 O   0  0  0  0  0  0  0  0  0  0  0  0
    4.5390   -2.2152    0.4703 O   0  0  0  0  0  0  0  0  0  0  0  0
   -0.8416    1.0272   -0.1640 C   0  0  0  0  0  0  0  0  0  0  0  0
   -0.3744    2.3971   -0.3609 C   0  0  0  0  0  0  0  0  0  0  0  0
   -1.1938    3.3431   -0.4605 O   0  0  0  0  0  0  0  0  0  0  0  0
   -2.1862    0.7323   -0.0820 C   0  0  0  0  0  0  0  0  0  0  0  0
   -3.0667    1.8001   -0.1959 O   0  0  0  0  0  0  0  0  0  0  0  0
   -4.6022   -0.0105    0.8456 H   0  0  0  0  0  0  0  0  0  0  0  0
   -4.2810   -1.8024    0.5592 H   0  0  0  0  0  0  0  0  0  0  0  0
   -4.5341   -0.6580   -0.8672 H   0  0  0  0  0  0  0  0  0  0  0  0
    0.2712   -2.1004    0.2163 H   0  0  0  0  0  0  0  0  0  0  0  0
    1.7235    0.7101   -1.1094 H   0  0  0  0  0  0  0  0  0  0  0  0
    1.7984    0.9764    0.6408 H   0  0  0  0  0  0  0  0  0  0  0  0
    5.2481    0.2745    1.2201 H   0  0  0  0  0  0  0  0  0  0  0  0
    3.8886   -2.9463    0.5266 H   0  0  0  0  0  0  0  0  0  0  0  0
    0.6752    2.6376   -0.4263 H   0  0  0  0  0  0  0  0  0  0  0  0
   -4.0715    1.6892   -0.1491 H   0  0  0  0  0  0  0  0  0  0  0  0
  1  2  1  0
  2  3  2  0
  3  4  1  0
  4  5  2  0
  5  6  1  0
  6  7  1  0
  7  8  1  0
  8  9  2  0
  8 10  1  0
  8 11  1  0
  5 12  1  0
 12 13  1  0
 13 14  2  0
 12 15  2  0
 15 16  1  0
 15  2  1  0
  1 17  1  0
  1 18  1  0
  1 19  1  0
  4 20  1  0
  6 21  1  0
  6 22  1  0
 10 23  1  0
 11 24  1  0
 13 25  1  0
 16 26  1  0
M  END
$$$$

     RDKit          3D

 26 26  0  0  0  0  0  0  0  0999 V2000
    4.1788    0.6150   -0.0459 C   0  0  0  0  0  0  0  0  0  0  0  0
    2.7044    0.4052   -0.0708 C   0  0  0  0  0  0  0  0  0  0  0  0
    1.9110    1.1682   -0.8103 N   0  0  0  0  0  0  0  0  0  0  0  0
    0.5772    1.0101   -0.8592 C   0  0  0  0  0  0  0  0  0  0  0  0
   -0.0422    0.0258   -0.1265 C   0  0  0  0  0  0  0  0  0  0  0  0
   -1.5142   -0.1712   -0.1617 C   0  0  0  0  0  0  0  0  0  0  0  0
   -2.0504    0.7641   -1.0095 O   0  0  0  0  0  0  0  0  0  0  0  0
   -3.7107    0.6866   -1.1691 P   0  0  0  0  0  5  0  0  0  0  0  0
   -4.0040    0.2549   -2.6079 O   0  0  0  0  0  0  0  0  0  0  0  0
   -4.4485    2.1909   -0.9644 O   0  0  0  0  0  0  0  0  0  0  0  0
   -4.4182   -0.4502   -0.1587 O   0  0  0  0  0  0  0  0  0  0  0  0
    0.7759   -0.7947    0.6642 C   0  0  0  0  0  0  0  0  0  0  0  0
    0.1341   -1.8211    1.4286 C   0  0  0  0  0  0  0  0  0  0  0  0
    0.7632   -2.6109    2.1683 O   0  0  0  0  0  0  0  0  0  0  0  0
    2.1457   -0.6190    0.7032 C   0  0  0  0  0  0  0  0  0  0  0  0
    3.0300   -1.3631    1.4393 O   0  0  0  0  0  0  0  0  0  0  0  0
    4.5798    0.7547   -1.0908 H   0  0  0  0  0  0  0  0  0  0  0  0
    4.6869   -0.2944    0.3355 H   0  0  0  0  0  0  0  0  0  0  0  0
    4.4578    1.4476    0.6183 H   0  0  0  0  0  0  0  0  0  0  0  0
    0.0128    1.6804   -1.4911 H   0  0  0  0  0  0  0  0  0  0  0  0
   -1.7743   -1.1893   -0.5734 H   0  0  0  0  0  0  0  0  0  0  0  0
   -1.9766   -0.1353    0.8406 H   0  0  0  0  0  0  0  0  0  0  0  0
   -3.7805    2.8844   -1.2289 H   0  0  0  0  0  0  0  0  0  0  0  0
   -4.1102   -0.4209    0.7660 H   0  0  0  0  0  0  0  0  0  0  0  0
   -0.9695   -1.9116    1.3550 H   0  0  0  0  0  0  0  0  0  0  0  0
    2.8419   -2.1063    2.0303 H   0  0  0  0  0  0  0  0  0  0  0  0
  1  2  1  0
  2  3  2  0
  3  4  1  0
  4  5  2  0
  5  6  1  0
  6  7  1  0
  7  8  1  0
  8  9  2  0
  8 10  1  0
  8 11  1  0
  5 12  1  0
 12 13  1  0
 13 14  2  0
 12 15  2  0
 15 16  1  0
 15  2  1  0
  1 17  1  0
  1 18  1  0
  1 19  1  0
  4 20  1  0
  6 21  1  0
  6 22  1  0
 10 23  1  0
 11 24  1  0
 13 25  1  0
 16 26  1  0
M  END
$$$$

     RDKit          3D

 26 26  0  0  0  0  0  0  0  0999 V2000
   -3.9826    1.0568   -1.1860 C   0  0  0  0  0  0  0  0  0  0  0  0
   -2.5732    0.7023   -0.8113 C   0  0  0  0  0  0  0  0  0  0  0  0
   -1.5273    1.1706   -1.4957 N   0  0  0  0  0  0  0  0  0  0  0  0
   -0.2597    0.8652   -1.1764 C   0  0  0  0  0  0  0  0  0  0  0  0
    0.0634    0.0473   -0.1210 C   0  0  0  0  0  0  0  0  0  0  0  0
    1.4668   -0.2919    0.2340 C   0  0  0  0  0  0  0  0  0  0  0  0
    2.3855    0.2946   -0.5977 O   0  0  0  0  0  0  0  0  0  0  0  0
    3.9406   -0.1539   -0.1089 P   0  0  0  0  0  5  0  0  0  0  0  0
    3.9000   -1.4745    0.6190 O   0  0  0  0  0  0  0  0  0  0  0  0
    4.9735   -0.3204   -1.4489 O   0  0  0  0  0  0  0  0  0  0  0  0
    4.5621    1.0379    0.9346 O   0  0  0  0  0  0  0  0  0  0  0  0
   -0.9936   -0.4645    0.6215 C   0  0  0  0  0  0  0  0  0  0  0  0
   -0.7162   -1.3373    1.7520 C   0  0  0  0  0  0  0  0  0  0  0  0
   -1.5815   -1.8546    2.4890 O   0  0  0  0  0  0  0  0  0  0  0  0
   -2.3062   -0.1398    0.2796 C   0  0  0  0  0  0  0  0  0  0  0  0
   -3.4128   -0.5902    0.9445 O   0  0  0  0  0  0  0  0  0  0  0  0
   -3.9297    1.8183   -1.9638 H   0  0  0  0  0  0  0  0  0  0  0  0
   -4.5633    0.1602   -1.4822 H   0  0  0  0  0  0  0  0  0  0  0  0
   -4.4991    1.5211   -0.3056 H   0  0  0  0  0  0  0  0  0  0  0  0
    0.5936    1.2588   -1.7500 H   0  0  0  0  0  0  0  0  0  0  0  0
    1.6921    0.0392    1.2723 H   0  0  0  0  0  0  0  0  0  0  0  0
    1.6364   -1.3977    0.2355 H   0  0  0  0  0  0  0  0  0  0  0  0
    4.4040   -0.4112   -2.2596 H   0  0  0  0  0  0  0  0  0  0  0  0
    3.9217    1.1716    1.6626 H   0  0  0  0  0  0  0  0  0  0  0  0
    0.3502   -1.5375    1.9460 H   0  0  0  0  0  0  0  0  0  0  0  0
   -3.5447   -1.1704    1.7166 H   0  0  0  0  0  0  0  0  0  0  0  0
  1  2  1  0
  2  3  2  0
  3  4  1  0
  4  5  2  0
  5  6  1  0
  6  7  1  0
  7  8  1  0
  8  9  2  0
  8 10  1  0
  8 11  1  0
  5 12  1  0
 12 13  1  0
 13 14  2  0
 12 15  2  0
 15 16  1  0
 15  2  1  0
  1 17  1  0
  1 18  1  0
  1 19  1  0
  4 20  1  0
  6 21  1  0
  6 22  1  0
 10 23  1  0
 11 24  1  0
 13 25  1  0
 16 26  1  0
M  END
$$$$

     RDKit          3D

 26 26  0  0  0  0  0  0  0  0999 V2000
   -4.1587    0.0014   -0.7231 C   0  0  0  0  0  0  0  0  0  0  0  0
   -2.7018    0.2612   -0.4547 C   0  0  0  0  0  0  0  0  0  0  0  0
   -2.1574    1.4266   -0.8745 N   0  0  0  0  0  0  0  0  0  0  0  0
   -0.8262    1.6340   -0.6102 C   0  0  0  0  0  0  0  0  0  0  0  0
   -0.0769    0.7048    0.0510 C   0  0  0  0  0  0  0  0  0  0  0  0
    1.3746    0.9474    0.3414 C   0  0  0  0  0  0  0  0  0  0  0  0
    2.1718   -0.0142   -0.2620 O   0  0  0  0  0  0  0  0  0  0  0  0
    3.7910    0.0885   -0.0186 P   0  0  0  0  0  5  0  0  0  0  0  0
    4.1596    0.0180    1.4400 O   0  0  0  0  0  0  0  0  0  0  0  0
    4.4764    1.5012   -0.6605 O   0  0  0  0  0  0  0  0  0  0  0  0
    4.5342   -1.2818   -0.7421 O   0  0  0  0  0  0  0  0  0  0  0  0
   -0.6361   -0.4587    0.4755 C   0  0  0  0  0  0  0  0  0  0  0  0
    0.1595   -1.4741    1.1463 C   0  0  0  0  0  0  0  0  0  0  0  0
   -0.3636   -2.5520    1.4317 O   0  0  0  0  0  0  0  0  0  0  0  0
   -2.0057   -0.6932    0.2176 C   0  0  0  0  0  0  0  0  0  0  0  0
   -2.5449   -1.8853    0.6523 O   0  0  0  0  0  0  0  0  0  0  0  0
   -4.7684    0.3628    0.1264 H   0  0  0  0  0  0  0  0  0  0  0  0
   -4.3498   -1.0750   -0.8880 H   0  0  0  0  0  0  0  0  0  0  0  0
   -4.4690    0.5757   -1.6257 H   0  0  0  0  0  0  0  0  0  0  0  0
   -0.3731    2.5765   -0.9826 H   0  0  0  0  0  0  0  0  0  0  0  0
    1.5123    1.0278    1.4078 H   0  0  0  0  0  0  0  0  0  0  0  0
    1.5993    1.9754   -0.1402 H   0  0  0  0  0  0  0  0  0  0  0  0
    3.8140    1.9341   -1.2734 H   0  0  0  0  0  0  0  0  0  0  0  0
    4.0927   -2.0961   -0.3560 H   0  0  0  0  0  0  0  0  0  0  0  0
    1.2116   -1.2895    1.4167 H   0  0  0  0  0  0  0  0  0  0  0  0
   -3.4654   -2.2154    0.4900 H   0  0  0  0  0  0  0  0  0  0  0  0
  1  2  1  0
  2  3  2  0
  3  4  1  0
  4  5  2  0
  5  6  1  0
  6  7  1  0
  7  8  1  0
  8  9  2  0
  8 10  1  0
  8 11  1  0
  5 12  1  0
 12 13  1  0
 13 14  2  0
 12 15  2  0
 15 16  1  0
 15  2  1  0
  1 17  1  0
  1 18  1  0
  1 19  1  0
  4 20  1  0
  6 21  1  0
  6 22  1  0
 10 23  1  0
 11 24  1  0
 13 25  1  0
 16 26  1  0
M  END
$$$$

     RDKit          3D

 26 26  0  0  0  0  0  0  0  0999 V2000
   -4.2098   -1.0737    0.1910 C   0  0  0  0  0  0  0  0  0  0  0  0
   -2.7489   -0.7697    0.2169 C   0  0  0  0  0  0  0  0  0  0  0  0
   -1.8310   -1.6111    0.6712 N   0  0  0  0  0  0  0  0  0  0  0  0
   -0.5173   -1.3362    0.6938 C   0  0  0  0  0  0  0  0  0  0  0  0
   -0.0083   -0.1416    0.2410 C   0  0  0  0  0  0  0  0  0  0  0  0
    1.4197    0.1977    0.2482 C   0  0  0  0  0  0  0  0  0  0  0  0
    2.1125   -0.9129    0.7931 O   0  0  0  0  0  0  0  0  0  0  0  0
    3.7526   -0.4741    0.7806 P   0  0  0  0  0  5  0  0  0  0  0  0
    3.9137    0.6087    1.8350 O   0  0  0  0  0  0  0  0  0  0  0  0
    4.0983    0.1630   -0.7343 O   0  0  0  0  0  0  0  0  0  0  0  0
    4.6834   -1.8330    1.1426 O   0  0  0  0  0  0  0  0  0  0  0  0
   -0.9534    0.7720   -0.2468 C   0  0  0  0  0  0  0  0  0  0  0  0
   -0.4635    2.0363   -0.7312 C   0  0  0  0  0  0  0  0  0  0  0  0
    0.7373    2.3732   -0.7467 O   0  0  0  0  0  0  0  0  0  0  0  0
   -2.3019    0.4715   -0.2623 C   0  0  0  0  0  0  0  0  0  0  0  0
   -3.2804    1.3364   -0.7329 O   0  0  0  0  0  0  0  0  0  0  0  0
   -4.4571   -1.6166   -0.7596 H   0  0  0  0  0  0  0  0  0  0  0  0
   -4.4833   -1.7330    1.0372 H   0  0  0  0  0  0  0  0  0  0  0  0
   -4.7431   -0.1211    0.1770 H   0  0  0  0  0  0  0  0  0  0  0  0
    0.2220   -2.0496    1.0749 H   0  0  0  0  0  0  0  0  0  0  0  0
    1.6039    1.0214    0.9449 H   0  0  0  0  0  0  0  0  0  0  0  0
    1.8615    0.3305   -0.7588 H   0  0  0  0  0  0  0  0  0  0  0  0
    4.2591    1.1567   -0.7002 H   0  0  0  0  0  0  0  0  0  0  0  0
    5.5080   -1.7902    0.6024 H   0  0  0  0  0  0  0  0  0  0  0  0
   -1.1502    2.7651   -1.1131 H   0  0  0  0  0  0  0  0  0  0  0  0
   -3.0239    2.2306   -1.0851 H   0  0  0  0  0  0  0  0  0  0  0  0
  1  2  1  0
  2  3  2  0
  3  4  1  0
  4  5  2  0
  5  6  1  0
  6  7  1  0
  7  8  1  0
  8  9  2  0
  8 10  1  0
  8 11  1  0
  5 12  1  0
 12 13  1  0
 13 14  2  0
 12 15  2  0
 15 16  1  0
 15  2  1  0
  1 17  1  0
  1 18  1  0
  1 19  1  0
  4 20  1  0
  6 21  1  0
  6 22  1  0
 10 23  1  0
 11 24  1  0
 13 25  1  0
 16 26  1  0
M  END
$$$$

     RDKit          3D

 26 26  0  0  0  0  0  0  0  0999 V2000
   -2.6896   -0.8334   -3.0856 C   0  0  0  0  0  0  0  0  0  0  0  0
   -1.7962   -0.4577   -1.9609 C   0  0  0  0  0  0  0  0  0  0  0  0
   -1.7136    0.8097   -1.5438 N   0  0  0  0  0  0  0  0  0  0  0  0
   -0.9080    1.1619   -0.5261 C   0  0  0  0  0  0  0  0  0  0  0  0
   -0.1543    0.2087    0.1001 C   0  0  0  0  0  0  0  0  0  0  0  0
    0.7412    0.5655    1.2226 C   0  0  0  0  0  0  0  0  0  0  0  0
    0.6808    1.9252    1.4983 O   0  0  0  0  0  0  0  0  0  0  0  0
    1.7273    2.2393    2.7839 P   0  0  0  0  0  5  0  0  0  0  0  0
    1.0384    3.2686    3.6822 O   0  0  0  0  0  0  0  0  0  0  0  0
    1.9456    0.8198    3.6647 O   0  0  0  0  0  0  0  0  0  0  0  0
    3.2078    2.8516    2.2226 O   0  0  0  0  0  0  0  0  0  0  0  0
   -0.1964   -1.1257   -0.2873 C   0  0  0  0  0  0  0  0  0  0  0  0
    0.6406   -2.1083    0.4276 C   0  0  0  0  0  0  0  0  0  0  0  0
    0.6511   -3.3124    0.1339 O   0  0  0  0  0  0  0  0  0  0  0  0
   -1.0254   -1.4551   -1.3261 C   0  0  0  0  0  0  0  0  0  0  0  0
   -1.1576   -2.7188   -1.7993 O   0  0  0  0  0  0  0  0  0  0  0  0
   -3.7257   -1.0308   -2.7598 H   0  0  0  0  0  0  0  0  0  0  0  0
   -2.3182   -1.7529   -3.5771 H   0  0  0  0  0  0  0  0  0  0  0  0
   -2.7049   -0.0001   -3.8382 H   0  0  0  0  0  0  0  0  0  0  0  0
   -0.8916    2.2131   -0.2403 H   0  0  0  0  0  0  0  0  0  0  0  0
    1.7852    0.3153    0.9957 H   0  0  0  0  0  0  0  0  0  0  0  0
    0.4017   -0.0463    2.1033 H   0  0  0  0  0  0  0  0  0  0  0  0
    2.4946    0.2043    3.0948 H   0  0  0  0  0  0  0  0  0  0  0  0
    3.4553    3.6295    2.7841 H   0  0  0  0  0  0  0  0  0  0  0  0
    1.2732   -1.8010    1.2345 H   0  0  0  0  0  0  0  0  0  0  0  0
   -0.7614   -3.5699   -1.5590 H   0  0  0  0  0  0  0  0  0  0  0  0
  1  2  1  0
  2  3  2  0
  3  4  1  0
  4  5  2  0
  5  6  1  0
  6  7  1  0
  7  8  1  0
  8  9  2  0
  8 10  1  0
  8 11  1  0
  5 12  1  0
 12 13  1  0
 13 14  2  0
 12 15  2  0
 15 16  1  0
 15  2  1  0
  1 17  1  0
  1 18  1  0
  1 19  1  0
  4 20  1  0
  6 21  1  0
  6 22  1  0
 10 23  1  0
 11 24  1  0
 13 25  1  0
 16 26  1  0
M  END
$$$$

     RDKit          3D

 26 26  0  0  0  0  0  0  0  0999 V2000
   -4.1942    0.7407   -0.6940 C   0  0  0  0  0  0  0  0  0  0  0  0
   -2.7171    0.5571   -0.4576 C   0  0  0  0  0  0  0  0  0  0  0  0
   -1.8926    1.5764   -0.6654 N   0  0  0  0  0  0  0  0  0  0  0  0
   -0.5638    1.4262   -0.4572 C   0  0  0  0  0  0  0  0  0  0  0  0
   -0.0560    0.2206   -0.0298 C   0  0  0  0  0  0  0  0  0  0  0  0
    1.3895    0.0727    0.1931 C   0  0  0  0  0  0  0  0  0  0  0  0
    2.0781    1.2753   -0.0880 O   0  0  0  0  0  0  0  0  0  0  0  0
    3.7108    0.9464    0.2132 P   0  0  0  0  0  5  0  0  0  0  0  0
    4.0409    1.6274    1.5448 O   0  0  0  0  0  0  0  0  0  0  0  0
    4.6902    1.6726   -0.9736 O   0  0  0  0  0  0  0  0  0  0  0  0
    4.0058   -0.7164    0.2942 O   0  0  0  0  0  0  0  0  0  0  0  0
   -0.8887   -0.8379    0.1887 C   0  0  0  0  0  0  0  0  0  0  0  0
   -0.3538   -2.0999    0.6358 C   0  0  0  0  0  0  0  0  0  0  0  0
    0.8627   -2.3283    0.8537 O   0  0  0  0  0  0  0  0  0  0  0  0
   -2.2322   -0.6809   -0.0233 C   0  0  0  0  0  0  0  0  0  0  0  0
   -3.1783   -1.6632    0.1583 O   0  0  0  0  0  0  0  0  0  0  0  0
   -4.3093    1.2415   -1.6656 H   0  0  0  0  0  0  0  0  0  0  0  0
   -4.6173    1.3982    0.1201 H   0  0  0  0  0  0  0  0  0  0  0  0
   -4.7059   -0.2273   -0.6743 H   0  0  0  0  0  0  0  0  0  0  0  0
    0.1380    2.2405   -0.6178 H   0  0  0  0  0  0  0  0  0  0  0  0
    1.8800   -0.6850   -0.4317 H   0  0  0  0  0  0  0  0  0  0  0  0
    1.6407   -0.1831    1.2622 H   0  0  0  0  0  0  0  0  0  0  0  0
    4.8210    1.0084   -1.7166 H   0  0  0  0  0  0  0  0  0  0  0  0
    4.4132   -1.0682   -0.5514 H   0  0  0  0  0  0  0  0  0  0  0  0
   -1.0219   -2.9295    0.8049 H   0  0  0  0  0  0  0  0  0  0  0  0
   -2.9400   -2.5846    0.4665 H   0  0  0  0  0  0  0  0  0  0  0  0
  1  2  1  0
  2  3  2  0
  3  4  1  0
  4  5  2  0
  5  6  1  0
  6  7  1  0
  7  8  1  0
  8  9  2  0
  8 10  1  0
  8 11  1  0
  5 12  1  0
 12 13  1  0
 13 14  2  0
 12 15  2  0
 15 16  1  0
 15  2  1  0
  1 17  1  0
  1 18  1  0
  1 19  1  0
  4 20  1  0
  6 21  1  0
  6 22  1  0
 10 23  1  0
 11 24  1  0
 13 25  1  0
 16 26  1  0
M  END
$$$$

     RDKit          3D

 26 26  0  0  0  0  0  0  0  0999 V2000
   -4.2196    0.4818    0.7986 C   0  0  0  0  0  0  0  0  0  0  0  0
   -2.7720    0.3899    0.4664 C   0  0  0  0  0  0  0  0  0  0  0  0
   -1.9982    1.4692    0.3636 N   0  0  0  0  0  0  0  0  0  0  0  0
   -0.6913    1.4352    0.0670 C   0  0  0  0  0  0  0  0  0  0  0  0
   -0.0475    0.2431   -0.1572 C   0  0  0  0  0  0  0  0  0  0  0  0
    1.3998    0.1667   -0.4883 C   0  0  0  0  0  0  0  0  0  0  0  0
    1.9871    1.4192   -0.5376 O   0  0  0  0  0  0  0  0  0  0  0  0
    3.6210    1.2000   -0.9203 P   0  0  0  0  0  5  0  0  0  0  0  0
    3.8868    1.5386   -2.3793 O   0  0  0  0  0  0  0  0  0  0  0  0
    4.5812    2.2833   -0.0066 O   0  0  0  0  0  0  0  0  0  0  0  0
    4.0833   -0.3584   -0.5356 O   0  0  0  0  0  0  0  0  0  0  0  0
   -0.8260   -0.9160   -0.0587 C   0  0  0  0  0  0  0  0  0  0  0  0
   -0.1355   -2.1671   -0.2974 C   0  0  0  0  0  0  0  0  0  0  0  0
   -0.7363   -3.2536   -0.2343 O   0  0  0  0  0  0  0  0  0  0  0  0
   -2.1670   -0.8590    0.2472 C   0  0  0  0  0  0  0  0  0  0  0  0
   -2.9941   -1.9462    0.3614 O   0  0  0  0  0  0  0  0  0  0  0  0
   -4.7560    1.1569    0.0991 H   0  0  0  0  0  0  0  0  0  0  0  0
   -4.6771   -0.5226    0.6760 H   0  0  0  0  0  0  0  0  0  0  0  0
   -4.4134    0.8484    1.8109 H   0  0  0  0  0  0  0  0  0  0  0  0
   -0.1230    2.3734    0.0011 H   0  0  0  0  0  0  0  0  0  0  0  0
    1.5977   -0.3443   -1.4413 H   0  0  0  0  0  0  0  0  0  0  0  0
    1.9589   -0.4114    0.3005 H   0  0  0  0  0  0  0  0  0  0  0  0
    5.4855    1.8385    0.0385 H   0  0  0  0  0  0  0  0  0  0  0  0
    3.8748   -0.9813   -1.2838 H   0  0  0  0  0  0  0  0  0  0  0  0
    0.9341   -2.1877   -0.5397 H   0  0  0  0  0  0  0  0  0  0  0  0
   -2.8532   -2.8964    0.2666 H   0  0  0  0  0  0  0  0  0  0  0  0
  1  2  1  0
  2  3  2  0
  3  4  1  0
  4  5  2  0
  5  6  1  0
  6  7  1  0
  7  8  1  0
  8  9  2  0
  8 10  1  0
  8 11  1  0
  5 12  1  0
 12 13  1  0
 13 14  2  0
 12 15  2  0
 15 16  1  0
 15  2  1  0
  1 17  1  0
  1 18  1  0
  1 19  1  0
  4 20  1  0
  6 21  1  0
  6 22  1  0
 10 23  1  0
 11 24  1  0
 13 25  1  0
 16 26  1  0
M  END
$$$$

     RDKit          3D

 26 26  0  0  0  0  0  0  0  0999 V2000
   -3.7619    1.5398    0.2946 C   0  0  0  0  0  0  0  0  0  0  0  0
   -2.4969    0.8846   -0.1356 C   0  0  0  0  0  0  0  0  0  0  0  0
   -1.8136    1.3671   -1.1681 N   0  0  0  0  0  0  0  0  0  0  0  0
   -0.6730    0.7566   -1.5929 C   0  0  0  0  0  0  0  0  0  0  0  0
   -0.2431   -0.3591   -0.9395 C   0  0  0  0  0  0  0  0  0  0  0  0
    1.2162   -0.7752   -1.1978 C   0  0  0  0  0  0  0  0  0  0  0  0
    1.9614    0.3006   -0.7759 O   0  0  0  0  0  0  0  0  0  0  0  0
    3.5523    0.3701   -0.7713 P   0  0  0  0  0  5  0  0  0  0  0  0
    4.2672    0.1064   -2.1003 O   0  0  0  0  0  0  0  0  0  0  0  0
    4.3750   -0.5643    0.3997 O   0  0  0  0  0  0  0  0  0  0  0  0
    4.0624    1.9899   -0.3939 O   0  0  0  0  0  0  0  0  0  0  0  0
   -0.8994   -0.9417    0.1427 C   0  0  0  0  0  0  0  0  0  0  0  0
   -0.3139   -2.0196    0.8638 C   0  0  0  0  0  0  0  0  0  0  0  0
   -0.9697   -2.1886    2.0425 O   0  0  0  0  0  0  0  0  0  0  0  0
   -2.0272   -0.2794    0.5084 C   0  0  0  0  0  0  0  0  0  0  0  0
   -2.8167   -0.6692    1.5796 O   0  0  0  0  0  0  0  0  0  0  0  0
   -4.1660    2.1159   -0.6108 H   0  0  0  0  0  0  0  0  0  0  0  0
   -3.6353    2.2767    1.0801 H   0  0  0  0  0  0  0  0  0  0  0  0
   -4.5494    0.7876    0.4832 H   0  0  0  0  0  0  0  0  0  0  0  0
   -0.2323    1.1605   -2.4707 H   0  0  0  0  0  0  0  0  0  0  0  0
    1.4035   -1.7610   -0.8571 H   0  0  0  0  0  0  0  0  0  0  0  0
    1.3577   -0.7269   -2.3560 H   0  0  0  0  0  0  0  0  0  0  0  0
    3.8600   -1.3213    0.7150 H   0  0  0  0  0  0  0  0  0  0  0  0
    5.0164    1.9830   -0.5499 H   0  0  0  0  0  0  0  0  0  0  0  0
    0.4087   -2.6781    0.7639 H   0  0  0  0  0  0  0  0  0  0  0  0
   -2.8825   -1.3543    2.2173 H   0  0  0  0  0  0  0  0  0  0  0  0
  1  2  1  0
  2  3  2  0
  3  4  1  0
  4  5  2  0
  5  6  1  0
  6  7  1  0
  7  8  1  0
  8  9  2  0
  8 10  1  0
  8 11  1  0
  5 12  1  0
 12 13  1  0
 13 14  2  0
 12 15  2  0
 15 16  1  0
 15  2  1  0
  1 17  1  0
  1 18  1  0
  1 19  1  0
  4 20  1  0
  6 21  1  0
  6 22  1  0
 10 23  1  0
 11 24  1  0
 13 25  1  0
 16 26  1  0
M  END
$$$$

     RDKit          3D

 26 26  0  0  0  0  0  0  0  0999 V2000
    4.2639    0.7028    0.6794 C   0  0  0  0  0  0  0  0  0  0  0  0
    2.7724    0.5665    0.5746 C   0  0  0  0  0  0  0  0  0  0  0  0
    2.0446    1.6339    0.9329 N   0  0  0  0  0  0  0  0  0  0  0  0
    0.6507    1.4890    0.7176 C   0  0  0  0  0  0  0  0  0  0  0  0
    0.0309    0.4391    0.2427 C   0  0  0  0  0  0  0  0  0  0  0  0
   -1.4303    0.2157    0.2737 C   0  0  0  0  0  0  0  0  0  0  0  0
   -2.2704    0.8783   -0.5624 O   0  0  0  0  0  0  0  0  0  0  0  0
   -3.8792    0.4545   -0.3088 P   0  0  0  0  0  5  0  0  0  0  0  0
   -4.4309    1.2367    0.8856 O   0  0  0  0  0  0  0  0  0  0  0  0
   -4.8085    0.7558   -1.6680 O   0  0  0  0  0  0  0  0  0  0  0  0
   -4.0564   -1.1958    0.0682 O   0  0  0  0  0  0  0  0  0  0  0  0
    0.8625   -0.6559   -0.1048 C   0  0  0  0  0  0  0  0  0  0  0  0
    0.2000   -1.8263   -0.7211 C   0  0  0  0  0  0  0  0  0  0  0  0
    1.0304   -2.7211   -1.2092 O   0  0  0  0  0  0  0  0  0  0  0  0
    2.2222   -0.6244    0.0346 C   0  0  0  0  0  0  0  0  0  0  0  0
    3.0477   -1.5971   -0.2787 O   0  0  0  0  0  0  0  0  0  0  0  0
    4.5768    0.6947    1.7112 H   0  0  0  0  0  0  0  0  0  0  0  0
    4.5496    1.7055    0.2202 H   0  0  0  0  0  0  0  0  0  0  0  0
    4.7291   -0.0289    0.0098 H   0  0  0  0  0  0  0  0  0  0  0  0
    0.0649    2.3870    0.9950 H   0  0  0  0  0  0  0  0  0  0  0  0
   -1.7027   -0.6887    0.8044 H   0  0  0  0  0  0  0  0  0  0  0  0
   -1.7135    0.9895    1.2509 H   0  0  0  0  0  0  0  0  0  0  0  0
   -4.1684    0.9537   -2.4119 H   0  0  0  0  0  0  0  0  0  0  0  0
   -5.0061   -1.4440    0.2831 H   0  0  0  0  0  0  0  0  0  0  0  0
   -0.7972   -1.8948   -0.7293 H   0  0  0  0  0  0  0  0  0  0  0  0
    3.2183   -2.4259   -0.6271 H   0  0  0  0  0  0  0  0  0  0  0  0
  1  2  1  0
  2  3  2  0
  3  4  1  0
  4  5  2  0
  5  6  1  0
  6  7  1  0
  7  8  1  0
  8  9  2  0
  8 10  1  0
  8 11  1  0
  5 12  1  0
 12 13  1  0
 13 14  2  0
 12 15  2  0
 15 16  1  0
 15  2  1  0
  1 17  1  0
  1 18  1  0
  1 19  1  0
  4 20  1  0
  6 21  1  0
  6 22  1  0
 10 23  1  0
 11 24  1  0
 13 25  1  0
 16 26  1  0
M  END
$$$$

     RDKit          3D

 26 26  0  0  0  0  0  0  0  0999 V2000
   -3.5467   -1.3448   -0.3769 C   0  0  0  0  0  0  0  0  0  0  0  0
   -2.2152   -0.7297   -0.3242 C   0  0  0  0  0  0  0  0  0  0  0  0
   -1.1355   -1.3529   -0.8030 N   0  0  0  0  0  0  0  0  0  0  0  0
    0.0902   -0.8005   -0.7605 C   0  0  0  0  0  0  0  0  0  0  0  0
    0.3193    0.4410   -0.2217 C   0  0  0  0  0  0  0  0  0  0  0  0
    1.6455    1.0933   -0.1813 C   0  0  0  0  0  0  0  0  0  0  0  0
    2.6911    0.3617   -0.6384 O   0  0  0  0  0  0  0  0  0  0  0  0
    3.0611   -1.0177    0.2372 P   0  0  0  0  0  5  0  0  0  0  0  0
    1.9836   -1.3171    1.2378 O   0  0  0  0  0  0  0  0  0  0  0  0
    3.3783   -2.3132   -0.8070 O   0  0  0  0  0  0  0  0  0  0  0  0
    4.4897   -0.6719    1.1379 O   0  0  0  0  0  0  0  0  0  0  0  0
   -0.8137    1.1106    0.2869 C   0  0  0  0  0  0  0  0  0  0  0  0
   -0.6108    2.4055    0.8460 C   0  0  0  0  0  0  0  0  0  0  0  0
   -1.5365    3.0884    1.3206 O   0  0  0  0  0  0  0  0  0  0  0  0
   -2.0711    0.5440    0.2430 C   0  0  0  0  0  0  0  0  0  0  0  0
   -3.2286    1.0997    0.7036 O   0  0  0  0  0  0  0  0  0  0  0  0
   -4.2836   -0.7639    0.2084 H   0  0  0  0  0  0  0  0  0  0  0  0
   -3.5637   -2.3713    0.0485 H   0  0  0  0  0  0  0  0  0  0  0  0
   -3.9278   -1.3439   -1.4369 H   0  0  0  0  0  0  0  0  0  0  0  0
    0.8867   -1.3899   -1.2018 H   0  0  0  0  0  0  0  0  0  0  0  0
    1.6240    2.0755   -0.7341 H   0  0  0  0  0  0  0  0  0  0  0  0
    1.8233    1.4088    0.9012 H   0  0  0  0  0  0  0  0  0  0  0  0
    2.9662   -3.1593   -0.4465 H   0  0  0  0  0  0  0  0  0  0  0  0
    4.8903    0.1643    0.8469 H   0  0  0  0  0  0  0  0  0  0  0  0
    0.4120    2.8212    0.8581 H   0  0  0  0  0  0  0  0  0  0  0  0
   -3.3280    1.9619    1.1224 H   0  0  0  0  0  0  0  0  0  0  0  0
  1  2  1  0
  2  3  2  0
  3  4  1  0
  4  5  2  0
  5  6  1  0
  6  7  1  0
  7  8  1  0
  8  9  2  0
  8 10  1  0
  8 11  1  0
  5 12  1  0
 12 13  1  0
 13 14  2  0
 12 15  2  0
 15 16  1  0
 15  2  1  0
  1 17  1  0
  1 18  1  0
  1 19  1  0
  4 20  1  0
  6 21  1  0
  6 22  1  0
 10 23  1  0
 11 24  1  0
 13 25  1  0
 16 26  1  0
M  END
$$$$

     RDKit          3D

 26 26  0  0  0  0  0  0  0  0999 V2000
   -3.9610    1.3835   -0.2976 C   0  0  0  0  0  0  0  0  0  0  0  0
   -2.5722    0.8824   -0.1783 C   0  0  0  0  0  0  0  0  0  0  0  0
   -1.5302    1.6916   -0.3990 N   0  0  0  0  0  0  0  0  0  0  0  0
   -0.2571    1.2923   -0.3053 C   0  0  0  0  0  0  0  0  0  0  0  0
    0.0116   -0.0196    0.0357 C   0  0  0  0  0  0  0  0  0  0  0  0
    1.4157   -0.4724    0.1418 C   0  0  0  0  0  0  0  0  0  0  0  0
    2.2657    0.5916   -0.1434 O   0  0  0  0  0  0  0  0  0  0  0  0
    3.8797    0.1733   -0.0481 P   0  0  0  0  0  5  0  0  0  0  0  0
    4.0757   -0.9021    0.9954 O   0  0  0  0  0  0  0  0  0  0  0  0
    4.5158   -0.3047   -1.5485 O   0  0  0  0  0  0  0  0  0  0  0  0
    4.7558    1.5711    0.4120 O   0  0  0  0  0  0  0  0  0  0  0  0
   -1.0310   -0.9211    0.2805 C   0  0  0  0  0  0  0  0  0  0  0  0
   -0.7569   -2.3043    0.6403 C   0  0  0  0  0  0  0  0  0  0  0  0
    0.3952   -2.7804    0.7552 O   0  0  0  0  0  0  0  0  0  0  0  0
   -2.3143   -0.4318    0.1634 C   0  0  0  0  0  0  0  0  0  0  0  0
   -3.3672   -1.3086    0.4018 O   0  0  0  0  0  0  0  0  0  0  0  0
   -3.9511    2.3016   -0.9365 H   0  0  0  0  0  0  0  0  0  0  0  0
   -4.5578    0.6288   -0.8170 H   0  0  0  0  0  0  0  0  0  0  0  0
   -4.4007    1.6367    0.6962 H   0  0  0  0  0  0  0  0  0  0  0  0
    0.5649    1.9963   -0.4966 H   0  0  0  0  0  0  0  0  0  0  0  0
    1.5419   -1.2820   -0.6223 H   0  0  0  0  0  0  0  0  0  0  0  0
    1.6708   -0.8402    1.1534 H   0  0  0  0  0  0  0  0  0  0  0  0
    5.3912   -0.7292   -1.3496 H   0  0  0  0  0  0  0  0  0  0  0  0
    4.1513    2.1403    0.9388 H   0  0  0  0  0  0  0  0  0  0  0  0
   -1.5964   -2.9551    0.8179 H   0  0  0  0  0  0  0  0  0  0  0  0
   -4.3396   -1.0379    0.3393 H   0  0  0  0  0  0  0  0  0  0  0  0
  1  2  1  0
  2  3  2  0
  3  4  1  0
  4  5  2  0
  5  6  1  0
  6  7  1  0
  7  8  1  0
  8  9  2  0
  8 10  1  0
  8 11  1  0
  5 12  1  0
 12 13  1  0
 13 14  2  0
 12 15  2  0
 15 16  1  0
 15  2  1  0
  1 17  1  0
  1 18  1  0
  1 19  1  0
  4 20  1  0
  6 21  1  0
  6 22  1  0
 10 23  1  0
 11 24  1  0
 13 25  1  0
 16 26  1  0
M  END
$$$$

     RDKit          3D

 26 26  0  0  0  0  0  0  0  0999 V2000
   -4.1088   -1.1120   -0.1817 C   0  0  0  0  0  0  0  0  0  0  0  0
   -2.6469   -0.7948   -0.1317 C   0  0  0  0  0  0  0  0  0  0  0  0
   -1.7104   -1.7599   -0.1348 N   0  0  0  0  0  0  0  0  0  0  0  0
   -0.3944   -1.4474   -0.0889 C   0  0  0  0  0  0  0  0  0  0  0  0
    0.0563   -0.1471   -0.0373 C   0  0  0  0  0  0  0  0  0  0  0  0
    1.4865    0.1887    0.0124 C   0  0  0  0  0  0  0  0  0  0  0  0
    2.3157   -0.9063    0.0025 O   0  0  0  0  0  0  0  0  0  0  0  0
    3.9185   -0.3650    0.0632 P   0  0  0  0  0  5  0  0  0  0  0  0
    4.2536    0.1988    1.4297 O   0  0  0  0  0  0  0  0  0  0  0  0
    4.8989   -1.7383   -0.2166 O   0  0  0  0  0  0  0  0  0  0  0  0
    4.2114    0.7828   -1.1523 O   0  0  0  0  0  0  0  0  0  0  0  0
   -0.8936    0.8556   -0.0335 C   0  0  0  0  0  0  0  0  0  0  0  0
   -0.5445    2.2652    0.0186 C   0  0  0  0  0  0  0  0  0  0  0  0
   -1.4392    3.1429    0.0202 O   0  0  0  0  0  0  0  0  0  0  0  0
   -2.2404    0.5261   -0.0807 C   0  0  0  0  0  0  0  0  0  0  0  0
   -3.2034    1.5329   -0.0771 O   0  0  0  0  0  0  0  0  0  0  0  0
   -4.6802   -0.5422    0.5731 H   0  0  0  0  0  0  0  0  0  0  0  0
   -4.4763   -0.9136   -1.1889 H   0  0  0  0  0  0  0  0  0  0  0  0
   -4.1931   -2.1930    0.1191 H   0  0  0  0  0  0  0  0  0  0  0  0
    0.3360   -2.2401   -0.0925 H   0  0  0  0  0  0  0  0  0  0  0  0
    1.7904    0.8384   -0.8571 H   0  0  0  0  0  0  0  0  0  0  0  0
    1.7475    0.7955    0.9258 H   0  0  0  0  0  0  0  0  0  0  0  0
    4.5278   -2.4437    0.3702 H   0  0  0  0  0  0  0  0  0  0  0  0
    4.6784    1.5472   -0.7207 H   0  0  0  0  0  0  0  0  0  0  0  0
    0.4772    2.6187    0.0575 H   0  0  0  0  0  0  0  0  0  0  0  0
   -4.1671    1.3106   -0.1105 H   0  0  0  0  0  0  0  0  0  0  0  0
  1  2  1  0
  2  3  2  0
  3  4  1  0
  4  5  2  0
  5  6  1  0
  6  7  1  0
  7  8  1  0
  8  9  2  0
  8 10  1  0
  8 11  1  0
  5 12  1  0
 12 13  1  0
 13 14  2  0
 12 15  2  0
 15 16  1  0
 15  2  1  0
  1 17  1  0
  1 18  1  0
  1 19  1  0
  4 20  1  0
  6 21  1  0
  6 22  1  0
 10 23  1  0
 11 24  1  0
 13 25  1  0
 16 26  1  0
M  END
$$$$

     RDKit          3D

 26 26  0  0  0  0  0  0  0  0999 V2000
   -4.1914   -0.9862    0.1250 C   0  0  0  0  0  0  0  0  0  0  0  0
   -2.7295   -0.6952    0.0730 C   0  0  0  0  0  0  0  0  0  0  0  0
   -1.8151   -1.6350    0.3117 N   0  0  0  0  0  0  0  0  0  0  0  0
   -0.4961   -1.4004    0.2716 C   0  0  0  0  0  0  0  0  0  0  0  0
    0.0099   -0.1560   -0.0230 C   0  0  0  0  0  0  0  0  0  0  0  0
    1.4728    0.1051   -0.0677 C   0  0  0  0  0  0  0  0  0  0  0  0
    2.2017   -1.0419    0.2188 O   0  0  0  0  0  0  0  0  0  0  0  0
    3.8431   -0.6124    0.1356 P   0  0  0  0  0  5  0  0  0  0  0  0
    4.0968   -0.1586   -1.2879 O   0  0  0  0  0  0  0  0  0  0  0  0
    4.8342   -1.9214    0.5444 O   0  0  0  0  0  0  0  0  0  0  0  0
    4.0754    0.6505    1.2406 O   0  0  0  0  0  0  0  0  0  0  0  0
   -0.9228    0.8543   -0.2790 C   0  0  0  0  0  0  0  0  0  0  0  0
   -0.3705    2.1567   -0.5870 C   0  0  0  0  0  0  0  0  0  0  0  0
   -1.0042    3.2003   -0.8474 O   0  0  0  0  0  0  0  0  0  0  0  0
   -2.2724    0.5943   -0.2331 C   0  0  0  0  0  0  0  0  0  0  0  0
   -3.2209    1.5580   -0.4780 O   0  0  0  0  0  0  0  0  0  0  0  0
   -4.4358   -1.8056   -0.5781 H   0  0  0  0  0  0  0  0  0  0  0  0
   -4.7465   -0.0615   -0.0630 H   0  0  0  0  0  0  0  0  0  0  0  0
   -4.4972   -1.3406    1.1454 H   0  0  0  0  0  0  0  0  0  0  0  0
    0.2279   -2.1959    0.4730 H   0  0  0  0  0  0  0  0  0  0  0  0
    1.7733    0.8898    0.6612 H   0  0  0  0  0  0  0  0  0  0  0  0
    1.7955    0.4706   -1.0629 H   0  0  0  0  0  0  0  0  0  0  0  0
    4.3047   -2.6851    0.8940 H   0  0  0  0  0  0  0  0  0  0  0  0
    4.4363    1.4112    0.7260 H   0  0  0  0  0  0  0  0  0  0  0  0
    0.7247    2.2980   -0.6074 H   0  0  0  0  0  0  0  0  0  0  0  0
   -3.0939    2.5069   -0.7059 H   0  0  0  0  0  0  0  0  0  0  0  0
  1  2  1  0
  2  3  2  0
  3  4  1  0
  4  5  2  0
  5  6  1  0
  6  7  1  0
  7  8  1  0
  8  9  2  0
  8 10  1  0
  8 11  1  0
  5 12  1  0
 12 13  1  0
 13 14  2  0
 12 15  2  0
 15 16  1  0
 15  2  1  0
  1 17  1  0
  1 18  1  0
  1 19  1  0
  4 20  1  0
  6 21  1  0
  6 22  1  0
 10 23  1  0
 11 24  1  0
 13 25  1  0
 16 26  1  0
M  END
$$$$

     RDKit          3D

 26 26  0  0  0  0  0  0  0  0999 V2000
   -3.8618    1.8516    0.0206 C   0  0  0  0  0  0  0  0  0  0  0  0
   -2.5228    1.1930   -0.0354 C   0  0  0  0  0  0  0  0  0  0  0  0
   -1.5030    1.6957   -0.7399 N   0  0  0  0  0  0  0  0  0  0  0  0
   -0.2964    1.1116   -0.7963 C   0  0  0  0  0  0  0  0  0  0  0  0
    0.0015   -0.0614   -0.1319 C   0  0  0  0  0  0  0  0  0  0  0  0
    1.3793   -0.6605   -0.2284 C   0  0  0  0  0  0  0  0  0  0  0  0
    2.1683    0.1438   -1.0638 O   0  0  0  0  0  0  0  0  0  0  0  0
    3.7063   -0.6003   -1.1203 P   0  0  0  0  0  5  0  0  0  0  0  0
    3.6401   -1.9474   -1.7731 O   0  0  0  0  0  0  0  0  0  0  0  0
    4.3278   -0.8030    0.4446 O   0  0  0  0  0  0  0  0  0  0  0  0
    4.7183    0.4639   -1.9822 O   0  0  0  0  0  0  0  0  0  0  0  0
   -1.0197   -0.6178    0.6082 C   0  0  0  0  0  0  0  0  0  0  0  0
   -0.7682   -1.8457    1.3186 C   0  0  0  0  0  0  0  0  0  0  0  0
    0.3599   -2.3883    1.2609 O   0  0  0  0  0  0  0  0  0  0  0  0
   -2.2705    0.0125    0.6505 C   0  0  0  0  0  0  0  0  0  0  0  0
   -3.3211   -0.5133    1.3816 O   0  0  0  0  0  0  0  0  0  0  0  0
   -4.4907    1.6210   -0.8460 H   0  0  0  0  0  0  0  0  0  0  0  0
   -4.4086    1.6050    0.9432 H   0  0  0  0  0  0  0  0  0  0  0  0
   -3.7447    2.9744    0.0356 H   0  0  0  0  0  0  0  0  0  0  0  0
    0.5255    1.5448   -1.3827 H   0  0  0  0  0  0  0  0  0  0  0  0
    1.8448   -0.7299    0.7815 H   0  0  0  0  0  0  0  0  0  0  0  0
    1.3830   -1.6651   -0.6828 H   0  0  0  0  0  0  0  0  0  0  0  0
    4.1727   -0.0204    1.0146 H   0  0  0  0  0  0  0  0  0  0  0  0
    4.6943    1.3241   -1.4791 H   0  0  0  0  0  0  0  0  0  0  0  0
   -1.5226   -2.3313    1.9117 H   0  0  0  0  0  0  0  0  0  0  0  0
   -3.1916   -1.3569    1.8904 H   0  0  0  0  0  0  0  0  0  0  0  0
  1  2  1  0
  2  3  2  0
  3  4  1  0
  4  5  2  0
  5  6  1  0
  6  7  1  0
  7  8  1  0
  8  9  2  0
  8 10  1  0
  8 11  1  0
  5 12  1  0
 12 13  1  0
 13 14  2  0
 12 15  2  0
 15 16  1  0
 15  2  1  0
  1 17  1  0
  1 18  1  0
  1 19  1  0
  4 20  1  0
  6 21  1  0
  6 22  1  0
 10 23  1  0
 11 24  1  0
 13 25  1  0
 16 26  1  0
M  END
$$$$

     RDKit          3D

 26 26  0  0  0  0  0  0  0  0999 V2000
   -3.5861    0.9830    0.7646 C   0  0  0  0  0  0  0  0  0  0  0  0
   -2.2031    0.4418    0.6184 C   0  0  0  0  0  0  0  0  0  0  0  0
   -1.1760    1.0082    1.2521 N   0  0  0  0  0  0  0  0  0  0  0  0
    0.1066    0.5423    1.1435 C   0  0  0  0  0  0  0  0  0  0  0  0
    0.3740   -0.5442    0.3599 C   0  0  0  0  0  0  0  0  0  0  0  0
    1.7222   -1.0915    0.2475 C   0  0  0  0  0  0  0  0  0  0  0  0
    2.6826   -0.3755    0.8760 O   0  0  0  0  0  0  0  0  0  0  0  0
    3.0088    1.1525    0.2847 P   0  0  0  0  0  5  0  0  0  0  0  0
    3.3247    2.0757    1.4401 O   0  0  0  0  0  0  0  0  0  0  0  0
    4.4310    1.1511   -0.6707 O   0  0  0  0  0  0  0  0  0  0  0  0
    1.8094    1.8099   -0.6758 O   0  0  0  0  0  0  0  0  0  0  0  0
   -0.7082   -1.1559   -0.3174 C   0  0  0  0  0  0  0  0  0  0  0  0
   -0.4029   -2.3088   -1.1266 C   0  0  0  0  0  0  0  0  0  0  0  0
   -1.2100   -2.9952   -1.7969 O   0  0  0  0  0  0  0  0  0  0  0  0
   -1.9891   -0.6813   -0.2014 C   0  0  0  0  0  0  0  0  0  0  0  0
   -3.0956   -1.2040   -0.8170 O   0  0  0  0  0  0  0  0  0  0  0  0
   -4.1484    0.9595   -0.1881 H   0  0  0  0  0  0  0  0  0  0  0  0
   -3.5457    2.0226    1.1169 H   0  0  0  0  0  0  0  0  0  0  0  0
   -4.1247    0.3509    1.5185 H   0  0  0  0  0  0  0  0  0  0  0  0
    0.8722    1.0380    1.7137 H   0  0  0  0  0  0  0  0  0  0  0  0
    1.6932   -2.1073    0.7472 H   0  0  0  0  0  0  0  0  0  0  0  0
    2.0105   -1.3108   -0.8164 H   0  0  0  0  0  0  0  0  0  0  0  0
    4.6945    2.1043   -0.7458 H   0  0  0  0  0  0  0  0  0  0  0  0
    1.9296    2.7834   -0.6902 H   0  0  0  0  0  0  0  0  0  0  0  0
    0.6325   -2.6655   -1.1967 H   0  0  0  0  0  0  0  0  0  0  0  0
   -3.1020   -1.9831   -1.4159 H   0  0  0  0  0  0  0  0  0  0  0  0
  1  2  1  0
  2  3  2  0
  3  4  1  0
  4  5  2  0
  5  6  1  0
  6  7  1  0
  7  8  1  0
  8  9  2  0
  8 10  1  0
  8 11  1  0
  5 12  1  0
 12 13  1  0
 13 14  2  0
 12 15  2  0
 15 16  1  0
 15  2  1  0
  1 17  1  0
  1 18  1  0
  1 19  1  0
  4 20  1  0
  6 21  1  0
  6 22  1  0
 10 23  1  0
 11 24  1  0
 13 25  1  0
 16 26  1  0
M  END
$$$$

     RDKit          3D

 26 26  0  0  0  0  0  0  0  0999 V2000
   -4.2093    0.8453   -0.3092 C   0  0  0  0  0  0  0  0  0  0  0  0
   -2.7137    0.6647   -0.2469 C   0  0  0  0  0  0  0  0  0  0  0  0
   -1.9187    1.7130   -0.5216 N   0  0  0  0  0  0  0  0  0  0  0  0
   -0.5537    1.6355   -0.4241 C   0  0  0  0  0  0  0  0  0  0  0  0
    0.0153    0.4414   -0.0302 C   0  0  0  0  0  0  0  0  0  0  0  0
    1.4815    0.3478    0.1271 C   0  0  0  0  0  0  0  0  0  0  0  0
    2.0965   -0.5630   -0.7501 O   0  0  0  0  0  0  0  0  0  0  0  0
    3.7799   -0.4219   -0.3998 P   0  0  0  0  0  5  0  0  0  0  0  0
    4.4789   -1.7265   -0.6278 O   0  0  0  0  0  0  0  0  0  0  0  0
    3.9287    0.0912    1.1999 O   0  0  0  0  0  0  0  0  0  0  0  0
    4.3282    0.7741   -1.4924 O   0  0  0  0  0  0  0  0  0  0  0  0
   -0.8436   -0.6460    0.2513 C   0  0  0  0  0  0  0  0  0  0  0  0
   -0.2631   -1.9196    0.6645 C   0  0  0  0  0  0  0  0  0  0  0  0
   -0.4690   -2.9489    0.9076 O   0  0  0  0  0  0  0  0  0  0  0  0
   -2.1847   -0.5257    0.1350 C   0  0  0  0  0  0  0  0  0  0  0  0
   -3.0018   -1.6275    0.4169 O   0  0  0  0  0  0  0  0  0  0  0  0
   -4.3305    1.6687   -1.0073 H   0  0  0  0  0  0  0  0  0  0  0  0
   -4.5535    1.1585    0.6868 H   0  0  0  0  0  0  0  0  0  0  0  0
   -4.6873   -0.0646   -0.5881 H   0  0  0  0  0  0  0  0  0  0  0  0
    0.0878    2.4980   -0.6918 H   0  0  0  0  0  0  0  0  0  0  0  0
    1.8497    1.3537   -0.4236 H   0  0  0  0  0  0  0  0  0  0  0  0
    1.9463    0.4308    1.0689 H   0  0  0  0  0  0  0  0  0  0  0  0
    3.5525   -0.6000    1.8065 H   0  0  0  0  0  0  0  0  0  0  0  0
    3.9876    1.6379   -1.1781 H   0  0  0  0  0  0  0  0  0  0  0  0
    0.9420   -1.6564    0.8152 H   0  0  0  0  0  0  0  0  0  0  0  0
   -2.7460   -2.5606    0.6112 H   0  0  0  0  0  0  0  0  0  0  0  0
  1  2  1  0
  2  3  2  0
  3  4  1  0
  4  5  2  0
  5  6  1  0
  6  7  1  0
  7  8  1  0
  8  9  2  0
  8 10  1  0
  8 11  1  0
  5 12  1  0
 12 13  1  0
 13 14  2  0
 12 15  2  0
 15 16  1  0
 15  2  1  0
  1 17  1  0
  1 18  1  0
  1 19  1  0
  4 20  1  0
  6 21  1  0
  6 22  1  0
 10 23  1  0
 11 24  1  0
 13 25  1  0
 16 26  1  0
M  END
$$$$

     RDKit          3D

 26 26  0  0  0  0  0  0  0  0999 V2000
   -3.5015    1.4967   -0.2524 C   0  0  0  0  0  0  0  0  0  0  0  0
   -2.1550    0.8287   -0.3002 C   0  0  0  0  0  0  0  0  0  0  0  0
   -1.0519    1.4722   -0.6300 N   0  0  0  0  0  0  0  0  0  0  0  0
    0.1929    0.9200   -0.6900 C   0  0  0  0  0  0  0  0  0  0  0  0
    0.3242   -0.4090   -0.3851 C   0  0  0  0  0  0  0  0  0  0  0  0
    1.6081   -1.0944   -0.4464 C   0  0  0  0  0  0  0  0  0  0  0  0
    2.7251   -0.3648   -0.7379 O   0  0  0  0  0  0  0  0  0  0  0  0
    3.1151    0.7783    0.4270 P   0  0  0  0  0  5  0  0  0  0  0  0
    1.9904    0.9693    1.4227 O   0  0  0  0  0  0  0  0  0  0  0  0
    4.5023    0.2658    1.2979 O   0  0  0  0  0  0  0  0  0  0  0  0
    3.5312    2.2379   -0.3116 O   0  0  0  0  0  0  0  0  0  0  0  0
   -0.8014   -1.1530   -0.0285 C   0  0  0  0  0  0  0  0  0  0  0  0
   -0.7503   -2.5669    0.2993 C   0  0  0  0  0  0  0  0  0  0  0  0
    0.3043   -3.2375    0.2940 O   0  0  0  0  0  0  0  0  0  0  0  0
   -2.0299   -0.5088    0.0062 C   0  0  0  0  0  0  0  0  0  0  0  0
   -3.1652   -1.2468    0.3634 O   0  0  0  0  0  0  0  0  0  0  0  0
   -4.0368    1.2062    0.6613 H   0  0  0  0  0  0  0  0  0  0  0  0
   -4.1080    1.2757   -1.1342 H   0  0  0  0  0  0  0  0  0  0  0  0
   -3.2861    2.5999   -0.2435 H   0  0  0  0  0  0  0  0  0  0  0  0
    1.0388    1.5506   -1.0031 H   0  0  0  0  0  0  0  0  0  0  0  0
    1.5980   -1.9749   -1.1559 H   0  0  0  0  0  0  0  0  0  0  0  0
    1.8099   -1.5771    0.5621 H   0  0  0  0  0  0  0  0  0  0  0  0
    4.8351   -0.6020    0.9430 H   0  0  0  0  0  0  0  0  0  0  0  0
    3.0645    3.0160    0.0643 H   0  0  0  0  0  0  0  0  0  0  0  0
   -1.6801   -3.0650    0.5625 H   0  0  0  0  0  0  0  0  0  0  0  0
   -4.0737   -0.8170    0.4002 H   0  0  0  0  0  0  0  0  0  0  0  0
  1  2  1  0
  2  3  2  0
  3  4  1  0
  4  5  2  0
  5  6  1  0
  6  7  1  0
  7  8  1  0
  8  9  2  0
  8 10  1  0
  8 11  1  0
  5 12  1  0
 12 13  1  0
 13 14  2  0
 12 15  2  0
 15 16  1  0
 15  2  1  0
  1 17  1  0
  1 18  1  0
  1 19  1  0
  4 20  1  0
  6 21  1  0
  6 22  1  0
 10 23  1  0
 11 24  1  0
 13 25  1  0
 16 26  1  0
M  END
$$$$

     RDKit          3D

 26 26  0  0  0  0  0  0  0  0999 V2000
   -4.0663   -0.9645    0.7171 C   0  0  0  0  0  0  0  0  0  0  0  0
   -2.6369   -0.6568    0.4776 C   0  0  0  0  0  0  0  0  0  0  0  0
   -1.7127   -1.6000    0.6143 N   0  0  0  0  0  0  0  0  0  0  0  0
   -0.4085   -1.3522    0.4042 C   0  0  0  0  0  0  0  0  0  0  0  0
    0.0220   -0.1000    0.0360 C   0  0  0  0  0  0  0  0  0  0  0  0
    1.4552    0.1566   -0.1924 C   0  0  0  0  0  0  0  0  0  0  0  0
    2.1565   -0.9886    0.0228 O   0  0  0  0  0  0  0  0  0  0  0  0
    3.8109   -0.8625   -0.1972 P   0  0  0  0  0  5  0  0  0  0  0  0
    4.5328   -1.6528    0.8722 O   0  0  0  0  0  0  0  0  0  0  0  0
    4.2418    0.7610    0.0175 O   0  0  0  0  0  0  0  0  0  0  0  0
    4.3218   -1.4443   -1.6876 O   0  0  0  0  0  0  0  0  0  0  0  0
   -0.9047    0.9129   -0.1181 C   0  0  0  0  0  0  0  0  0  0  0  0
   -0.3984    2.2137   -0.5063 C   0  0  0  0  0  0  0  0  0  0  0  0
   -1.0738    3.2474   -0.6937 O   0  0  0  0  0  0  0  0  0  0  0  0
   -2.2413    0.6336    0.1037 C   0  0  0  0  0  0  0  0  0  0  0  0
   -3.2043    1.6050   -0.0359 O   0  0  0  0  0  0  0  0  0  0  0  0
   -4.3744   -0.5734    1.7266 H   0  0  0  0  0  0  0  0  0  0  0  0
   -4.6515   -0.4283   -0.0702 H   0  0  0  0  0  0  0  0  0  0  0  0
   -4.2049   -2.0429    0.6174 H   0  0  0  0  0  0  0  0  0  0  0  0
    0.3246   -2.1382    0.5223 H   0  0  0  0  0  0  0  0  0  0  0  0
    1.6467    0.6417   -1.1708 H   0  0  0  0  0  0  0  0  0  0  0  0
    1.8078    0.9130    0.5701 H   0  0  0  0  0  0  0  0  0  0  0  0
    4.2884    0.9207    1.0057 H   0  0  0  0  0  0  0  0  0  0  0  0
    3.7177   -2.0990   -2.0882 H   0  0  0  0  0  0  0  0  0  0  0  0
    0.6842    2.3610   -0.6655 H   0  0  0  0  0  0  0  0  0  0  0  0
   -3.1326    2.5368   -0.2818 H   0  0  0  0  0  0  0  0  0  0  0  0
  1  2  1  0
  2  3  2  0
  3  4  1  0
  4  5  2  0
  5  6  1  0
  6  7  1  0
  7  8  1  0
  8  9  2  0
  8 10  1  0
  8 11  1  0
  5 12  1  0
 12 13  1  0
 13 14  2  0
 12 15  2  0
 15 16  1  0
 15  2  1  0
  1 17  1  0
  1 18  1  0
  1 19  1  0
  4 20  1  0
  6 21  1  0
  6 22  1  0
 10 23  1  0
 11 24  1  0
 13 25  1  0
 16 26  1  0
M  END
$$$$

     RDKit          3D

 26 26  0  0  0  0  0  0  0  0999 V2000
   -3.7082    1.2485    0.7908 C   0  0  0  0  0  0  0  0  0  0  0  0
   -2.3259    0.6087    0.7178 C   0  0  0  0  0  0  0  0  0  0  0  0
   -1.3685    1.0177    1.4514 N   0  0  0  0  0  0  0  0  0  0  0  0
   -0.1693    0.5386    1.3317 C   0  0  0  0  0  0  0  0  0  0  0  0
    0.0487   -0.4434    0.3652 C   0  0  0  0  0  0  0  0  0  0  0  0
    1.5084   -0.8712    0.0352 C   0  0  0  0  0  0  0  0  0  0  0  0
    2.2226    0.2674   -0.1583 O   0  0  0  0  0  0  0  0  0  0  0  0
    3.7099    0.4132   -0.5707 P   0  0  0  0  0  5  0  0  0  0  0  0
    4.2266   -0.4511   -1.7464 O   0  0  0  0  0  0  0  0  0  0  0  0
    4.1593    2.0437   -1.0376 O   0  0  0  0  0  0  0  0  0  0  0  0
    4.7833    0.1113    0.7376 O   0  0  0  0  0  0  0  0  0  0  0  0
   -0.8852   -0.9627   -0.4332 C   0  0  0  0  0  0  0  0  0  0  0  0
   -0.7817   -2.0817   -1.3141 C   0  0  0  0  0  0  0  0  0  0  0  0
    0.1684   -2.7707   -1.6093 O   0  0  0  0  0  0  0  0  0  0  0  0
   -2.2103   -0.4238   -0.3165 C   0  0  0  0  0  0  0  0  0  0  0  0
   -3.1610   -0.7929   -1.1224 O   0  0  0  0  0  0  0  0  0  0  0  0
   -3.9987    1.5763   -0.2012 H   0  0  0  0  0  0  0  0  0  0  0  0
   -4.3746    0.5203    1.1839 H   0  0  0  0  0  0  0  0  0  0  0  0
   -3.6310    2.1085    1.4595 H   0  0  0  0  0  0  0  0  0  0  0  0
    0.5905    0.8420    1.9936 H   0  0  0  0  0  0  0  0  0  0  0  0
    1.9226   -1.0816    1.2070 H   0  0  0  0  0  0  0  0  0  0  0  0
    1.5815   -1.8185   -0.3810 H   0  0  0  0  0  0  0  0  0  0  0  0
    3.3314    2.6208   -0.9041 H   0  0  0  0  0  0  0  0  0  0  0  0
    4.2607    0.4649    1.5226 H   0  0  0  0  0  0  0  0  0  0  0  0
   -1.8181   -2.3747   -1.8139 H   0  0  0  0  0  0  0  0  0  0  0  0
   -4.0814   -0.3096   -1.1873 H   0  0  0  0  0  0  0  0  0  0  0  0
  1  2  1  0
  2  3  2  0
  3  4  1  0
  4  5  2  0
  5  6  1  0
  6  7  1  0
  7  8  1  0
  8  9  2  0
  8 10  1  0
  8 11  1  0
  5 12  1  0
 12 13  1  0
 13 14  2  0
 12 15  2  0
 15 16  1  0
 15  2  1  0
  1 17  1  0
  1 18  1  0
  1 19  1  0
  4 20  1  0
  6 21  1  0
  6 22  1  0
 10 23  1  0
 11 24  1  0
 13 25  1  0
 16 26  1  0
M  END
$$$$

     RDKit          3D

 26 26  0  0  0  0  0  0  0  0999 V2000
    4.0830    1.1465    0.3986 C   0  0  0  0  0  0  0  0  0  0  0  0
    2.6525    0.8037    0.1899 C   0  0  0  0  0  0  0  0  0  0  0  0
    1.7374    1.7827    0.2145 N   0  0  0  0  0  0  0  0  0  0  0  0
    0.4259    1.5385    0.0324 C   0  0  0  0  0  0  0  0  0  0  0  0
    0.0718    0.2194   -0.1822 C   0  0  0  0  0  0  0  0  0  0  0  0
   -1.3573   -0.0901   -0.3864 C   0  0  0  0  0  0  0  0  0  0  0  0
   -2.1631    1.0274   -0.3310 O   0  0  0  0  0  0  0  0  0  0  0  0
   -3.7715    0.5846   -0.5733 P   0  0  0  0  0  5  0  0  0  0  0  0
   -4.4562    1.4984   -1.5581 O   0  0  0  0  0  0  0  0  0  0  0  0
   -3.9038   -0.9896   -1.1930 O   0  0  0  0  0  0  0  0  0  0  0  0
   -4.5312    0.6750    0.9554 O   0  0  0  0  0  0  0  0  0  0  0  0
    0.9808   -0.8254   -0.2163 C   0  0  0  0  0  0  0  0  0  0  0  0
    0.4582   -2.1565   -0.4518 C   0  0  0  0  0  0  0  0  0  0  0  0
    1.2025   -3.1545   -0.4985 O   0  0  0  0  0  0  0  0  0  0  0  0
    2.3127   -0.5421   -0.0267 C   0  0  0  0  0  0  0  0  0  0  0  0
    3.3075   -1.4528   -0.0332 O   0  0  0  0  0  0  0  0  0  0  0  0
    4.7331    0.2800    0.2883 H   0  0  0  0  0  0  0  0  0  0  0  0
    4.1502    1.5701    1.4348 H   0  0  0  0  0  0  0  0  0  0  0  0
    4.3791    1.9750   -0.2807 H   0  0  0  0  0  0  0  0  0  0  0  0
   -0.3305    2.3270    0.0501 H   0  0  0  0  0  0  0  0  0  0  0  0
   -1.7315   -0.8057    0.3730 H   0  0  0  0  0  0  0  0  0  0  0  0
   -1.4645   -0.5807   -1.3917 H   0  0  0  0  0  0  0  0  0  0  0  0
   -4.3667   -1.5647   -0.5132 H   0  0  0  0  0  0  0  0  0  0  0  0
   -5.0609    1.4997    0.9763 H   0  0  0  0  0  0  0  0  0  0  0  0
   -0.5970   -2.3504   -0.5979 H   0  0  0  0  0  0  0  0  0  0  0  0
    3.2395   -2.4156   -0.1681 H   0  0  0  0  0  0  0  0  0  0  0  0
  1  2  1  0
  2  3  2  0
  3  4  1  0
  4  5  2  0
  5  6  1  0
  6  7  1  0
  7  8  1  0
  8  9  2  0
  8 10  1  0
  8 11  1  0
  5 12  1  0
 12 13  1  0
 13 14  2  0
 12 15  2  0
 15 16  1  0
 15  2  1  0
  1 17  1  0
  1 18  1  0
  1 19  1  0
  4 20  1  0
  6 21  1  0
  6 22  1  0
 10 23  1  0
 11 24  1  0
 13 25  1  0
 16 26  1  0
M  END
$$$$

     RDKit          3D

 26 26  0  0  0  0  0  0  0  0999 V2000
   -4.0487   -1.3789   -0.4396 C   0  0  0  0  0  0  0  0  0  0  0  0
   -2.6108   -1.0389   -0.1246 C   0  0  0  0  0  0  0  0  0  0  0  0
   -1.6711   -1.9390   -0.1635 N   0  0  0  0  0  0  0  0  0  0  0  0
   -0.3750   -1.6360   -0.0009 C   0  0  0  0  0  0  0  0  0  0  0  0
    0.0397   -0.3269    0.2093 C   0  0  0  0  0  0  0  0  0  0  0  0
    1.4355    0.0454    0.5293 C   0  0  0  0  0  0  0  0  0  0  0  0
    2.1415    0.0511   -0.6711 O   0  0  0  0  0  0  0  0  0  0  0  0
    3.6799    0.6320   -0.4568 P   0  0  0  0  0  5  0  0  0  0  0  0
    3.7443    2.1724   -0.5772 O   0  0  0  0  0  0  0  0  0  0  0  0
    4.7468    0.0320   -1.6640 O   0  0  0  0  0  0  0  0  0  0  0  0
    4.3177    0.2940    1.1064 O   0  0  0  0  0  0  0  0  0  0  0  0
   -0.9641    0.6174    0.2448 C   0  0  0  0  0  0  0  0  0  0  0  0
   -0.6945    2.0550    0.4402 C   0  0  0  0  0  0  0  0  0  0  0  0
    0.6802    2.1884    0.4898 O   0  0  0  0  0  0  0  0  0  0  0  0
   -2.3232    0.2994    0.0811 C   0  0  0  0  0  0  0  0  0  0  0  0
   -3.2542    1.3163    0.1229 O   0  0  0  0  0  0  0  0  0  0  0  0
   -4.4959   -1.8515    0.4049 H   0  0  0  0  0  0  0  0  0  0  0  0
   -3.9908   -2.1251   -1.2847 H   0  0  0  0  0  0  0  0  0  0  0  0
   -4.6155   -0.4934   -0.7276 H   0  0  0  0  0  0  0  0  0  0  0  0
    0.4014   -2.4058   -0.0129 H   0  0  0  0  0  0  0  0  0  0  0  0
    1.9116   -0.9736    1.0469 H   0  0  0  0  0  0  0  0  0  0  0  0
    1.5677    0.7674    1.2139 H   0  0  0  0  0  0  0  0  0  0  0  0
    4.4985   -0.8862   -1.8420 H   0  0  0  0  0  0  0  0  0  0  0  0
    4.0306   -0.5839    1.3682 H   0  0  0  0  0  0  0  0  0  0  0  0
   -1.1656    2.8647    0.5342 H   0  0  0  0  0  0  0  0  0  0  0  0
   -2.9861    2.3034    0.1729 H   0  0  0  0  0  0  0  0  0  0  0  0
  1  2  1  0
  2  3  2  0
  3  4  1  0
  4  5  2  0
  5  6  1  0
  6  7  1  0
  7  8  1  0
  8  9  2  0
  8 10  1  0
  8 11  1  0
  5 12  1  0
 12 13  1  0
 13 14  2  0
 12 15  2  0
 15 16  1  0
 15  2  1  0
  1 17  1  0
  1 18  1  0
  1 19  1  0
  4 20  1  0
  6 21  1  0
  6 22  1  0
 10 23  1  0
 11 24  1  0
 13 25  1  0
 16 26  1  0
M  END
$$$$

     RDKit          3D

 26 26  0  0  0  0  0  0  0  0999 V2000
   -3.9673    1.2786    0.1967 C   0  0  0  0  0  0  0  0  0  0  0  0
   -2.5604    0.7937    0.1118 C   0  0  0  0  0  0  0  0  0  0  0  0
   -1.5745    1.7204    0.0508 N   0  0  0  0  0  0  0  0  0  0  0  0
   -0.2826    1.3519   -0.0272 C   0  0  0  0  0  0  0  0  0  0  0  0
    0.0901    0.0366   -0.0483 C   0  0  0  0  0  0  0  0  0  0  0  0
    1.5150   -0.3667   -0.1343 C   0  0  0  0  0  0  0  0  0  0  0  0
    2.2884    0.7855   -0.1827 O   0  0  0  0  0  0  0  0  0  0  0  0
    3.9311    0.4609   -0.2821 P   0  0  0  0  0  5  0  0  0  0  0  0
    4.3813    0.1775   -1.6980 O   0  0  0  0  0  0  0  0  0  0  0  0
    4.3618   -0.8427    0.6866 O   0  0  0  0  0  0  0  0  0  0  0  0
    4.7935    1.8140    0.2546 O   0  0  0  0  0  0  0  0  0  0  0  0
   -0.9338   -0.9131    0.0151 C   0  0  0  0  0  0  0  0  0  0  0  0
   -0.5739   -2.3227   -0.0051 C   0  0  0  0  0  0  0  0  0  0  0  0
   -1.4852   -3.1807    0.0513 O   0  0  0  0  0  0  0  0  0  0  0  0
   -2.2586   -0.5520    0.0951 C   0  0  0  0  0  0  0  0  0  0  0  0
   -3.2762   -1.5148    0.1581 O   0  0  0  0  0  0  0  0  0  0  0  0
   -4.0170    2.2774   -0.3141 H   0  0  0  0  0  0  0  0  0  0  0  0
   -4.6811    0.6327   -0.3228 H   0  0  0  0  0  0  0  0  0  0  0  0
   -4.1826    1.3944    1.2900 H   0  0  0  0  0  0  0  0  0  0  0  0
    0.5323    2.0861   -0.0776 H   0  0  0  0  0  0  0  0  0  0  0  0
    1.8208   -1.0126    0.7242 H   0  0  0  0  0  0  0  0  0  0  0  0
    1.6756   -0.9539   -1.0769 H   0  0  0  0  0  0  0  0  0  0  0  0
    3.9745   -1.6625    0.2826 H   0  0  0  0  0  0  0  0  0  0  0  0
    4.1872    2.4360    0.7099 H   0  0  0  0  0  0  0  0  0  0  0  0
    0.4799   -2.6398   -0.0687 H   0  0  0  0  0  0  0  0  0  0  0  0
   -4.2382   -1.2841    0.2163 H   0  0  0  0  0  0  0  0  0  0  0  0
  1  2  1  0
  2  3  2  0
  3  4  1  0
  4  5  2  0
  5  6  1  0
  6  7  1  0
  7  8  1  0
  8  9  2  0
  8 10  1  0
  8 11  1  0
  5 12  1  0
 12 13  1  0
 13 14  2  0
 12 15  2  0
 15 16  1  0
 15  2  1  0
  1 17  1  0
  1 18  1  0
  1 19  1  0
  4 20  1  0
  6 21  1  0
  6 22  1  0
 10 23  1  0
 11 24  1  0
 13 25  1  0
 16 26  1  0
M  END
$$$$

     RDKit          3D

 26 26  0  0  0  0  0  0  0  0999 V2000
   -3.8601    0.2871   -1.8155 C   0  0  0  0  0  0  0  0  0  0  0  0
   -2.4856    0.1707   -1.2681 C   0  0  0  0  0  0  0  0  0  0  0  0
   -1.4231    0.0616   -2.0814 N   0  0  0  0  0  0  0  0  0  0  0  0
   -0.1785   -0.0444   -1.6285 C   0  0  0  0  0  0  0  0  0  0  0  0
    0.0488   -0.0446   -0.2957 C   0  0  0  0  0  0  0  0  0  0  0  0
    1.3957   -0.1575    0.3186 C   0  0  0  0  0  0  0  0  0  0  0  0
    2.3948   -0.2630   -0.6408 O   0  0  0  0  0  0  0  0  0  0  0  0
    3.8669   -0.3839    0.1911 P   0  0  0  0  0  5  0  0  0  0  0  0
    3.6810   -1.4220    1.2711 O   0  0  0  0  0  0  0  0  0  0  0  0
    5.1126   -0.8108   -0.8516 O   0  0  0  0  0  0  0  0  0  0  0  0
    4.1508    1.1066    0.9427 O   0  0  0  0  0  0  0  0  0  0  0  0
   -1.0338    0.0673    0.5891 C   0  0  0  0  0  0  0  0  0  0  0  0
   -0.7680    0.0651    2.0127 C   0  0  0  0  0  0  0  0  0  0  0  0
   -1.6384    0.1575    2.8817 O   0  0  0  0  0  0  0  0  0  0  0  0
   -2.3219    0.1774    0.1358 C   0  0  0  0  0  0  0  0  0  0  0  0
   -3.4487    0.2915    0.9036 O   0  0  0  0  0  0  0  0  0  0  0  0
   -4.0436    1.3634   -2.0568 H   0  0  0  0  0  0  0  0  0  0  0  0
   -3.8786   -0.3141   -2.7500 H   0  0  0  0  0  0  0  0  0  0  0  0
   -4.5942   -0.0731   -1.0709 H   0  0  0  0  0  0  0  0  0  0  0  0
    0.6975   -0.1341   -2.2871 H   0  0  0  0  0  0  0  0  0  0  0  0
    1.6263    0.6596    1.0180 H   0  0  0  0  0  0  0  0  0  0  0  0
    1.4138   -1.1069    0.8987 H   0  0  0  0  0  0  0  0  0  0  0  0
    5.0232   -1.7744   -1.0572 H   0  0  0  0  0  0  0  0  0  0  0  0
    3.5572    1.8273    0.5642 H   0  0  0  0  0  0  0  0  0  0  0  0
    0.2677   -0.0232    2.3893 H   0  0  0  0  0  0  0  0  0  0  0  0
   -3.5616    0.3167    1.8746 H   0  0  0  0  0  0  0  0  0  0  0  0
  1  2  1  0
  2  3  2  0
  3  4  1  0
  4  5  2  0
  5  6  1  0
  6  7  1  0
  7  8  1  0
  8  9  2  0
  8 10  1  0
  8 11  1  0
  5 12  1  0
 12 13  1  0
 13 14  2  0
 12 15  2  0
 15 16  1  0
 15  2  1  0
  1 17  1  0
  1 18  1  0
  1 19  1  0
  4 20  1  0
  6 21  1  0
  6 22  1  0
 10 23  1  0
 11 24  1  0
 13 25  1  0
 16 26  1  0
M  END
$$$$

     RDKit          3D

 26 26  0  0  0  0  0  0  0  0999 V2000
   -3.0681    1.9468    0.6635 C   0  0  0  0  0  0  0  0  0  0  0  0
   -1.9109    1.1147    0.2406 C   0  0  0  0  0  0  0  0  0  0  0  0
   -0.7371    1.6647   -0.0939 N   0  0  0  0  0  0  0  0  0  0  0  0
    0.3433    0.9154   -0.4869 C   0  0  0  0  0  0  0  0  0  0  0  0
    0.3191   -0.4537   -0.5703 C   0  0  0  0  0  0  0  0  0  0  0  0
    1.4620   -1.2661   -1.0173 C   0  0  0  0  0  0  0  0  0  0  0  0
    2.5806   -0.5004   -1.2306 O   0  0  0  0  0  0  0  0  0  0  0  0
    3.2523    0.2059    0.1257 P   0  0  0  0  0  5  0  0  0  0  0  0
    4.4636   -0.6807    0.4913 O   0  0  0  0  0  0  0  0  0  0  0  0
    3.8858    1.7117   -0.3042 O   0  0  0  0  0  0  0  0  0  0  0  0
    2.2240    0.2917    1.4488 O   0  0  0  0  0  0  0  0  0  0  0  0
   -0.9025   -1.0523   -0.2263 C   0  0  0  0  0  0  0  0  0  0  0  0
   -1.0295   -2.4779   -0.3016 C   0  0  0  0  0  0  0  0  0  0  0  0
   -0.0988   -3.2114   -0.6529 O   0  0  0  0  0  0  0  0  0  0  0  0
   -1.9821   -0.2503    0.1698 C   0  0  0  0  0  0  0  0  0  0  0  0
   -3.1691   -0.9000    0.5006 O   0  0  0  0  0  0  0  0  0  0  0  0
   -3.2570    1.8516    1.7506 H   0  0  0  0  0  0  0  0  0  0  0  0
   -3.9745    1.5301    0.1506 H   0  0  0  0  0  0  0  0  0  0  0  0
   -2.9277    3.0126    0.4011 H   0  0  0  0  0  0  0  0  0  0  0  0
    1.2512    1.4320   -0.7819 H   0  0  0  0  0  0  0  0  0  0  0  0
    1.6982   -2.0086   -0.1719 H   0  0  0  0  0  0  0  0  0  0  0  0
    1.2533   -1.8303   -1.9504 H   0  0  0  0  0  0  0  0  0  0  0  0
    3.5500    1.9798   -1.1951 H   0  0  0  0  0  0  0  0  0  0  0  0
    2.7434    0.3248    2.2881 H   0  0  0  0  0  0  0  0  0  0  0  0
   -1.9754   -2.9466   -0.0426 H   0  0  0  0  0  0  0  0  0  0  0  0
   -3.9940   -0.4037    0.7954 H   0  0  0  0  0  0  0  0  0  0  0  0
  1  2  1  0
  2  3  2  0
  3  4  1  0
  4  5  2  0
  5  6  1  0
  6  7  1  0
  7  8  1  0
  8  9  2  0
  8 10  1  0
  8 11  1  0
  5 12  1  0
 12 13  1  0
 13 14  2  0
 12 15  2  0
 15 16  1  0
 15  2  1  0
  1 17  1  0
  1 18  1  0
  1 19  1  0
  4 20  1  0
  6 21  1  0
  6 22  1  0
 10 23  1  0
 11 24  1  0
 13 25  1  0
 16 26  1  0
M  END
$$$$

     RDKit          3D

 26 26  0  0  0  0  0  0  0  0999 V2000
   -3.9948    1.2785   -0.7101 C   0  0  0  0  0  0  0  0  0  0  0  0
   -2.5978    0.8436   -0.4301 C   0  0  0  0  0  0  0  0  0  0  0  0
   -1.5918    1.7157   -0.5072 N   0  0  0  0  0  0  0  0  0  0  0  0
   -0.3407    1.3413   -0.2601 C   0  0  0  0  0  0  0  0  0  0  0  0
    0.0166    0.0600    0.0866 C   0  0  0  0  0  0  0  0  0  0  0  0
    1.4408   -0.2754    0.3428 C   0  0  0  0  0  0  0  0  0  0  0  0
    2.2176    0.8718    0.1770 O   0  0  0  0  0  0  0  0  0  0  0  0
    3.8407    0.6011    0.4434 P   0  0  0  0  0  5  0  0  0  0  0  0
    4.2498    1.4445    1.6551 O   0  0  0  0  0  0  0  0  0  0  0  0
    4.8077    1.1287   -0.8414 O   0  0  0  0  0  0  0  0  0  0  0  0
    4.1672   -1.0119    0.8490 O   0  0  0  0  0  0  0  0  0  0  0  0
   -1.0112   -0.8816    0.1774 C   0  0  0  0  0  0  0  0  0  0  0  0
   -0.6940   -2.2521    0.5422 C   0  0  0  0  0  0  0  0  0  0  0  0
    0.4845   -2.6095    0.7770 O   0  0  0  0  0  0  0  0  0  0  0  0
   -2.3102   -0.4771   -0.0830 C   0  0  0  0  0  0  0  0  0  0  0  0
   -3.3745   -1.3639   -0.0099 O   0  0  0  0  0  0  0  0  0  0  0  0
   -4.5217    1.5185    0.2159 H   0  0  0  0  0  0  0  0  0  0  0  0
   -4.5152    0.5369   -1.3454 H   0  0  0  0  0  0  0  0  0  0  0  0
   -3.9555    2.2242   -1.3094 H   0  0  0  0  0  0  0  0  0  0  0  0
    0.4628    2.0662   -0.3283 H   0  0  0  0  0  0  0  0  0  0  0  0
    1.5150   -0.6094    1.3972 H   0  0  0  0  0  0  0  0  0  0  0  0
    1.7601   -1.0618   -0.3891 H   0  0  0  0  0  0  0  0  0  0  0  0
    4.2730    1.7906   -1.3466 H   0  0  0  0  0  0  0  0  0  0  0  0
    4.4108   -1.5567    0.0478 H   0  0  0  0  0  0  0  0  0  0  0  0
   -1.4525   -2.9890    0.6199 H   0  0  0  0  0  0  0  0  0  0  0  0
   -3.2868   -2.3332    0.2292 H   0  0  0  0  0  0  0  0  0  0  0  0
  1  2  1  0
  2  3  2  0
  3  4  1  0
  4  5  2  0
  5  6  1  0
  6  7  1  0
  7  8  1  0
  8  9  2  0
  8 10  1  0
  8 11  1  0
  5 12  1  0
 12 13  1  0
 13 14  2  0
 12 15  2  0
 15 16  1  0
 15  2  1  0
  1 17  1  0
  1 18  1  0
  1 19  1  0
  4 20  1  0
  6 21  1  0
  6 22  1  0
 10 23  1  0
 11 24  1  0
 13 25  1  0
 16 26  1  0
M  END
$$$$

     RDKit          3D

 26 26  0  0  0  0  0  0  0  0999 V2000
    4.1567   -1.0931   -0.0156 C   0  0  0  0  0  0  0  0  0  0  0  0
    2.6929   -0.8121   -0.0579 C   0  0  0  0  0  0  0  0  0  0  0  0
    1.7729   -1.7592    0.1557 N   0  0  0  0  0  0  0  0  0  0  0  0
    0.4559   -1.5061    0.1175 C   0  0  0  0  0  0  0  0  0  0  0  0
   -0.0122   -0.2569   -0.1438 C   0  0  0  0  0  0  0  0  0  0  0  0
   -1.4484    0.0939   -0.2014 C   0  0  0  0  0  0  0  0  0  0  0  0
   -2.2637   -1.0058    0.0436 O   0  0  0  0  0  0  0  0  0  0  0  0
   -3.8989   -0.5962   -0.0242 P   0  0  0  0  0  5  0  0  0  0  0  0
   -4.6592   -1.5536   -0.9138 O   0  0  0  0  0  0  0  0  0  0  0  0
   -4.6106   -0.6717    1.5235 O   0  0  0  0  0  0  0  0  0  0  0  0
   -4.1043    0.9825   -0.5767 O   0  0  0  0  0  0  0  0  0  0  0  0
    0.8945    0.7855   -0.3776 C   0  0  0  0  0  0  0  0  0  0  0  0
    0.4388    2.1235   -0.6580 C   0  0  0  0  0  0  0  0  0  0  0  0
    1.2025    3.0704   -0.8696 O   0  0  0  0  0  0  0  0  0  0  0  0
    2.2463    0.4990   -0.3327 C   0  0  0  0  0  0  0  0  0  0  0  0
    3.2420    1.4135   -0.5403 O   0  0  0  0  0  0  0  0  0  0  0  0
    4.5797   -1.2859   -1.0209 H   0  0  0  0  0  0  0  0  0  0  0  0
    4.6768   -0.1782    0.3600 H   0  0  0  0  0  0  0  0  0  0  0  0
    4.3554   -1.9774    0.6265 H   0  0  0  0  0  0  0  0  0  0  0  0
   -0.2827   -2.3027    0.2968 H   0  0  0  0  0  0  0  0  0  0  0  0
   -1.6540    0.8448    0.5895 H   0  0  0  0  0  0  0  0  0  0  0  0
   -1.6642    0.5625   -1.1683 H   0  0  0  0  0  0  0  0  0  0  0  0
   -4.6646   -1.6291    1.7680 H   0  0  0  0  0  0  0  0  0  0  0  0
   -4.0675    1.6178    0.1923 H   0  0  0  0  0  0  0  0  0  0  0  0
   -0.6530    2.2715   -0.6764 H   0  0  0  0  0  0  0  0  0  0  0  0
    3.2690    2.3633   -0.7436 H   0  0  0  0  0  0  0  0  0  0  0  0
  1  2  1  0
  2  3  2  0
  3  4  1  0
  4  5  2  0
  5  6  1  0
  6  7  1  0
  7  8  1  0
  8  9  2  0
  8 10  1  0
  8 11  1  0
  5 12  1  0
 12 13  1  0
 13 14  2  0
 12 15  2  0
 15 16  1  0
 15  2  1  0
  1 17  1  0
  1 18  1  0
  1 19  1  0
  4 20  1  0
  6 21  1  0
  6 22  1  0
 10 23  1  0
 11 24  1  0
 13 25  1  0
 16 26  1  0
M  END
$$$$

     RDKit          3D

 26 26  0  0  0  0  0  0  0  0999 V2000
   -3.7843   -0.4368    1.5541 C   0  0  0  0  0  0  0  0  0  0  0  0
   -2.3964   -0.3567    1.0149 C   0  0  0  0  0  0  0  0  0  0  0  0
   -1.2992   -0.8683    1.5814 N   0  0  0  0  0  0  0  0  0  0  0  0
   -0.0638   -0.8414    0.9970 C   0  0  0  0  0  0  0  0  0  0  0  0
    0.1697   -0.2818   -0.2232 C   0  0  0  0  0  0  0  0  0  0  0  0
    1.4187   -0.2546   -0.9385 C   0  0  0  0  0  0  0  0  0  0  0  0
    2.4507    0.3068   -0.4497 O   0  0  0  0  0  0  0  0  0  0  0  0
    3.5242    0.2557    0.7359 P   0  0  0  0  0  5  0  0  0  0  0  0
    3.0227    0.5272    2.1105 O   0  0  0  0  0  0  0  0  0  0  0  0
    4.3168   -1.2986    0.7796 O   0  0  0  0  0  0  0  0  0  0  0  0
    4.8181    1.3854    0.4417 O   0  0  0  0  0  0  0  0  0  0  0  0
   -0.9779    0.2863   -0.8502 C   0  0  0  0  0  0  0  0  0  0  0  0
   -0.8135    0.8225   -2.1599 C   0  0  0  0  0  0  0  0  0  0  0  0
    0.1965    0.9183   -2.8586 O   0  0  0  0  0  0  0  0  0  0  0  0
   -2.1921    0.2327   -0.2318 C   0  0  0  0  0  0  0  0  0  0  0  0
   -3.3070    0.8420   -0.8790 O   0  0  0  0  0  0  0  0  0  0  0  0
   -3.8292    0.3788    2.2818 H   0  0  0  0  0  0  0  0  0  0  0  0
   -4.5379   -0.2023    0.7606 H   0  0  0  0  0  0  0  0  0  0  0  0
   -4.0220   -1.4437    2.0040 H   0  0  0  0  0  0  0  0  0  0  0  0
    0.7797   -1.3028    1.5163 H   0  0  0  0  0  0  0  0  0  0  0  0
    1.6689   -1.4978   -0.7718 H   0  0  0  0  0  0  0  0  0  0  0  0
    1.3781   -0.2421   -2.0161 H   0  0  0  0  0  0  0  0  0  0  0  0
    4.0845   -1.7438   -0.0905 H   0  0  0  0  0  0  0  0  0  0  0  0
    4.3761    2.2261    0.1073 H   0  0  0  0  0  0  0  0  0  0  0  0
   -1.7394    1.2220   -2.6837 H   0  0  0  0  0  0  0  0  0  0  0  0
   -3.2419    1.3670   -1.7321 H   0  0  0  0  0  0  0  0  0  0  0  0
  1  2  1  0
  2  3  2  0
  3  4  1  0
  4  5  2  0
  5  6  1  0
  6  7  1  0
  7  8  1  0
  8  9  2  0
  8 10  1  0
  8 11  1  0
  5 12  1  0
 12 13  1  0
 13 14  2  0
 12 15  2  0
 15 16  1  0
 15  2  1  0
  1 17  1  0
  1 18  1  0
  1 19  1  0
  4 20  1  0
  6 21  1  0
  6 22  1  0
 10 23  1  0
 11 24  1  0
 13 25  1  0
 16 26  1  0
M  END
$$$$

     RDKit          3D

 26 26  0  0  0  0  0  0  0  0999 V2000
   -3.9964    1.3477   -0.6461 C   0  0  0  0  0  0  0  0  0  0  0  0
   -2.5488    0.9722   -0.4698 C   0  0  0  0  0  0  0  0  0  0  0  0
   -1.6105    1.9094   -0.6266 N   0  0  0  0  0  0  0  0  0  0  0  0
   -0.3195    1.5720   -0.4625 C   0  0  0  0  0  0  0  0  0  0  0  0
    0.0807    0.2676   -0.1351 C   0  0  0  0  0  0  0  0  0  0  0  0
    1.5182   -0.0175   -0.0771 C   0  0  0  0  0  0  0  0  0  0  0  0
    1.9748   -0.5775    1.1225 O   0  0  0  0  0  0  0  0  0  0  0  0
    3.6452   -0.8145    0.9422 P   0  0  0  0  0  5  0  0  0  0  0  0
    4.0523   -2.1074    1.6077 O   0  0  0  0  0  0  0  0  0  0  0  0
    4.4818    0.4642    1.7039 O   0  0  0  0  0  0  0  0  0  0  0  0
    4.0714   -0.8045   -0.7073 O   0  0  0  0  0  0  0  0  0  0  0  0
   -0.8633   -0.6634    0.0196 C   0  0  0  0  0  0  0  0  0  0  0  0
   -0.4752   -2.0160    0.3820 C   0  0  0  0  0  0  0  0  0  0  0  0
   -1.3832   -2.8603    0.5502 O   0  0  0  0  0  0  0  0  0  0  0  0
   -2.1847   -0.2893   -0.1517 C   0  0  0  0  0  0  0  0  0  0  0  0
   -3.1239   -1.3651    0.0332 O   0  0  0  0  0  0  0  0  0  0  0  0
   -4.5457    0.5019   -1.1569 H   0  0  0  0  0  0  0  0  0  0  0  0
   -4.4893    1.6698    0.2623 H   0  0  0  0  0  0  0  0  0  0  0  0
   -4.0718    2.2163   -1.3934 H   0  0  0  0  0  0  0  0  0  0  0  0
    0.3943    2.3568   -0.6203 H   0  0  0  0  0  0  0  0  0  0  0  0
    2.0353    1.0513   -0.0105 H   0  0  0  0  0  0  0  0  0  0  0  0
    1.8723   -0.4310   -1.0075 H   0  0  0  0  0  0  0  0  0  0  0  0
    4.1603    1.2752    1.2467 H   0  0  0  0  0  0  0  0  0  0  0  0
    4.8758   -0.2146   -0.8747 H   0  0  0  0  0  0  0  0  0  0  0  0
    0.5384   -2.3553    0.5285 H   0  0  0  0  0  0  0  0  0  0  0  0
   -4.0883   -1.0880   -0.0596 H   0  0  0  0  0  0  0  0  0  0  0  0
  1  2  1  0
  2  3  2  0
  3  4  1  0
  4  5  2  0
  5  6  1  0
  6  7  1  0
  7  8  1  0
  8  9  2  0
  8 10  1  0
  8 11  1  0
  5 12  1  0
 12 13  1  0
 13 14  2  0
 12 15  2  0
 15 16  1  0
 15  2  1  0
  1 17  1  0
  1 18  1  0
  1 19  1  0
  4 20  1  0
  6 21  1  0
  6 22  1  0
 10 23  1  0
 11 24  1  0
 13 25  1  0
 16 26  1  0
M  END
$$$$

     RDKit          3D

 26 26  0  0  0  0  0  0  0  0999 V2000
    4.1792   -0.7060   -0.0580 C   0  0  0  0  0  0  0  0  0  0  0  0
    2.6934   -0.5833   -0.0467 C   0  0  0  0  0  0  0  0  0  0  0  0
    1.8820   -1.6381   -0.1540 N   0  0  0  0  0  0  0  0  0  0  0  0
    0.5480   -1.5344   -0.1443 C   0  0  0  0  0  0  0  0  0  0  0  0
   -0.0180   -0.2668   -0.0164 C   0  0  0  0  0  0  0  0  0  0  0  0
   -1.4801   -0.0787    0.0105 C   0  0  0  0  0  0  0  0  0  0  0  0
   -2.1598   -1.2975   -0.1234 O   0  0  0  0  0  0  0  0  0  0  0  0
   -3.8196   -0.9242   -0.0748 P   0  0  0  0  0  5  0  0  0  0  0  0
   -4.3990   -1.2388    1.2887 O   0  0  0  0  0  0  0  0  0  0  0  0
   -4.6134   -1.8247   -1.2876 O   0  0  0  0  0  0  0  0  0  0  0  0
   -4.0683    0.7402   -0.3390 O   0  0  0  0  0  0  0  0  0  0  0  0
    0.8002    0.8367    0.0955 C   0  0  0  0  0  0  0  0  0  0  0  0
    0.2401    2.1857    0.2258 C   0  0  0  0  0  0  0  0  0  0  0  0
   -1.0100    2.3892    0.2432 O   0  0  0  0  0  0  0  0  0  0  0  0
    2.1789    0.7193    0.0846 C   0  0  0  0  0  0  0  0  0  0  0  0
    3.0501    1.7823    0.1927 O   0  0  0  0  0  0  0  0  0  0  0  0
    4.6522    0.1104    0.5289 H   0  0  0  0  0  0  0  0  0  0  0  0
    4.5131   -1.6613    0.4005 H   0  0  0  0  0  0  0  0  0  0  0  0
    4.5582   -0.5871   -1.1056 H   0  0  0  0  0  0  0  0  0  0  0  0
   -0.1233   -2.3847   -0.2309 H   0  0  0  0  0  0  0  0  0  0  0  0
   -1.7497    0.3773    0.9865 H   0  0  0  0  0  0  0  0  0  0  0  0
   -1.7665    0.5239   -0.8670 H   0  0  0  0  0  0  0  0  0  0  0  0
   -3.9882   -1.9291   -2.0717 H   0  0  0  0  0  0  0  0  0  0  0  0
   -3.7586    1.2165    0.4722 H   0  0  0  0  0  0  0  0  0  0  0  0
    0.8837    3.0482    0.3112 H   0  0  0  0  0  0  0  0  0  0  0  0
    2.7754    2.7250    0.2879 H   0  0  0  0  0  0  0  0  0  0  0  0
  1  2  1  0
  2  3  2  0
  3  4  1  0
  4  5  2  0
  5  6  1  0
  6  7  1  0
  7  8  1  0
  8  9  2  0
  8 10  1  0
  8 11  1  0
  5 12  1  0
 12 13  1  0
 13 14  2  0
 12 15  2  0
 15 16  1  0
 15  2  1  0
  1 17  1  0
  1 18  1  0
  1 19  1  0
  4 20  1  0
  6 21  1  0
  6 22  1  0
 10 23  1  0
 11 24  1  0
 13 25  1  0
 16 26  1  0
M  END
$$$$

     RDKit          3D

 26 26  0  0  0  0  0  0  0  0999 V2000
   -4.0971    1.0084    0.2684 C   0  0  0  0  0  0  0  0  0  0  0  0
   -2.6337    0.6844    0.1217 C   0  0  0  0  0  0  0  0  0  0  0  0
   -1.7094    1.6423    0.1000 N   0  0  0  0  0  0  0  0  0  0  0  0
   -0.3776    1.3910   -0.0309 C   0  0  0  0  0  0  0  0  0  0  0  0
    0.0481    0.0882   -0.1473 C   0  0  0  0  0  0  0  0  0  0  0  0
    1.4939   -0.2184   -0.2915 C   0  0  0  0  0  0  0  0  0  0  0  0
    2.2283    0.9751   -0.2823 O   0  0  0  0  0  0  0  0  0  0  0  0
    3.8768    0.6413   -0.4458 P   0  0  0  0  0  5  0  0  0  0  0  0
    4.1396    0.3834   -1.9158 O   0  0  0  0  0  0  0  0  0  0  0  0
    4.2979   -0.7285    0.4532 O   0  0  0  0  0  0  0  0  0  0  0  0
    4.8351    1.9149    0.0876 O   0  0  0  0  0  0  0  0  0  0  0  0
   -0.8644   -0.9463   -0.1312 C   0  0  0  0  0  0  0  0  0  0  0  0
   -0.4506   -2.3384   -0.2520 C   0  0  0  0  0  0  0  0  0  0  0  0
    0.7445   -2.6755   -0.3762 O   0  0  0  0  0  0  0  0  0  0  0  0
   -2.2206   -0.6280    0.0058 C   0  0  0  0  0  0  0  0  0  0  0  0
   -3.1497   -1.6425    0.0245 O   0  0  0  0  0  0  0  0  0  0  0  0
   -4.6755    0.4755   -0.4941 H   0  0  0  0  0  0  0  0  0  0  0  0
   -4.1953    2.0920    0.2473 H   0  0  0  0  0  0  0  0  0  0  0  0
   -4.3693    0.5990    1.2846 H   0  0  0  0  0  0  0  0  0  0  0  0
    0.3423    2.1985   -0.0441 H   0  0  0  0  0  0  0  0  0  0  0  0
    1.7436   -0.7373   -1.2170 H   0  0  0  0  0  0  0  0  0  0  0  0
    1.8134   -0.8342    0.5886 H   0  0  0  0  0  0  0  0  0  0  0  0
    4.1796   -1.5691   -0.0503 H   0  0  0  0  0  0  0  0  0  0  0  0
    4.3298    2.7613    0.0989 H   0  0  0  0  0  0  0  0  0  0  0  0
   -1.2109   -3.1040   -0.2328 H   0  0  0  0  0  0  0  0  0  0  0  0
   -4.1186   -1.4332    0.1213 H   0  0  0  0  0  0  0  0  0  0  0  0
  1  2  1  0
  2  3  2  0
  3  4  1  0
  4  5  2  0
  5  6  1  0
  6  7  1  0
  7  8  1  0
  8  9  2  0
  8 10  1  0
  8 11  1  0
  5 12  1  0
 12 13  1  0
 13 14  2  0
 12 15  2  0
 15 16  1  0
 15  2  1  0
  1 17  1  0
  1 18  1  0
  1 19  1  0
  4 20  1  0
  6 21  1  0
  6 22  1  0
 10 23  1  0
 11 24  1  0
 13 25  1  0
 16 26  1  0
M  END
$$$$

     RDKit          3D

 26 26  0  0  0  0  0  0  0  0999 V2000
   -4.0969   -0.8988    0.8253 C   0  0  0  0  0  0  0  0  0  0  0  0
   -2.6700   -0.6278    0.5364 C   0  0  0  0  0  0  0  0  0  0  0  0
   -1.7175   -1.2389    1.2422 N   0  0  0  0  0  0  0  0  0  0  0  0
   -0.4155   -1.0376    1.0307 C   0  0  0  0  0  0  0  0  0  0  0  0
    0.0052   -0.1711    0.0531 C   0  0  0  0  0  0  0  0  0  0  0  0
    1.4401    0.0948   -0.2298 C   0  0  0  0  0  0  0  0  0  0  0  0
    2.2749   -0.6213    0.5935 O   0  0  0  0  0  0  0  0  0  0  0  0
    3.8754   -0.2147    0.1530 P   0  0  0  0  0  5  0  0  0  0  0  0
    4.1186   -0.7886   -1.2320 O   0  0  0  0  0  0  0  0  0  0  0  0
    3.9386    1.4811    0.1149 O   0  0  0  0  0  0  0  0  0  0  0  0
    4.9917   -0.7819    1.2595 O   0  0  0  0  0  0  0  0  0  0  0  0
   -0.9578    0.4846   -0.7033 C   0  0  0  0  0  0  0  0  0  0  0  0
   -0.5192    1.3960   -1.7316 C   0  0  0  0  0  0  0  0  0  0  0  0
   -1.2969    2.0321   -2.4634 O   0  0  0  0  0  0  0  0  0  0  0  0
   -2.2980    0.2684   -0.4755 C   0  0  0  0  0  0  0  0  0  0  0  0
   -3.3370    0.8476   -1.1461 O   0  0  0  0  0  0  0  0  0  0  0  0
   -4.3094   -0.9344    1.9133 H   0  0  0  0  0  0  0  0  0  0  0  0
   -4.3331   -1.8903    0.3548 H   0  0  0  0  0  0  0  0  0  0  0  0
   -4.7244   -0.1110    0.3180 H   0  0  0  0  0  0  0  0  0  0  0  0
    0.3687   -1.5341    1.6043 H   0  0  0  0  0  0  0  0  0  0  0  0
    1.6755   -0.1861   -1.2762 H   0  0  0  0  0  0  0  0  0  0  0  0
    1.6335    1.1850   -0.1542 H   0  0  0  0  0  0  0  0  0  0  0  0
    3.7703    1.8022    1.0289 H   0  0  0  0  0  0  0  0  0  0  0  0
    5.4077   -1.6116    0.8673 H   0  0  0  0  0  0  0  0  0  0  0  0
    0.5372    1.5577   -1.9012 H   0  0  0  0  0  0  0  0  0  0  0  0
   -3.3614    1.4988   -1.8852 H   0  0  0  0  0  0  0  0  0  0  0  0
  1  2  1  0
  2  3  2  0
  3  4  1  0
  4  5  2  0
  5  6  1  0
  6  7  1  0
  7  8  1  0
  8  9  2  0
  8 10  1  0
  8 11  1  0
  5 12  1  0
 12 13  1  0
 13 14  2  0
 12 15  2  0
 15 16  1  0
 15  2  1  0
  1 17  1  0
  1 18  1  0
  1 19  1  0
  4 20  1  0
  6 21  1  0
  6 22  1  0
 10 23  1  0
 11 24  1  0
 13 25  1  0
 16 26  1  0
M  END
$$$$

     RDKit          3D

 26 26  0  0  0  0  0  0  0  0999 V2000
   -3.6182    1.1318   -0.0124 C   0  0  0  0  0  0  0  0  0  0  0  0
   -2.2320    0.5940   -0.1574 C   0  0  0  0  0  0  0  0  0  0  0  0
   -1.2362    1.3124   -0.6954 N   0  0  0  0  0  0  0  0  0  0  0  0
    0.0144    0.7739   -0.8052 C   0  0  0  0  0  0  0  0  0  0  0  0
    0.3320   -0.4901   -0.3887 C   0  0  0  0  0  0  0  0  0  0  0  0
    1.6643   -1.0846   -0.5288 C   0  0  0  0  0  0  0  0  0  0  0  0
    2.6087   -0.2246   -1.0218 O   0  0  0  0  0  0  0  0  0  0  0  0
    3.0032    1.0632   -0.0298 P   0  0  0  0  0  5  0  0  0  0  0  0
    1.9896    1.1601    1.0800 O   0  0  0  0  0  0  0  0  0  0  0  0
    4.5563    0.7536    0.6422 O   0  0  0  0  0  0  0  0  0  0  0  0
    3.1724    2.4796   -0.9100 O   0  0  0  0  0  0  0  0  0  0  0  0
   -0.6631   -1.2571    0.1664 C   0  0  0  0  0  0  0  0  0  0  0  0
   -0.4913   -2.6169    0.6415 C   0  0  0  0  0  0  0  0  0  0  0  0
    0.6125   -3.1718    0.5699 O   0  0  0  0  0  0  0  0  0  0  0  0
   -1.9319   -0.6677    0.2606 C   0  0  0  0  0  0  0  0  0  0  0  0
   -2.9634   -1.4396    0.8280 O   0  0  0  0  0  0  0  0  0  0  0  0
   -3.6985    2.0755   -0.6292 H   0  0  0  0  0  0  0  0  0  0  0  0
   -4.3820    0.4547   -0.4454 H   0  0  0  0  0  0  0  0  0  0  0  0
   -3.8041    1.3571    1.0441 H   0  0  0  0  0  0  0  0  0  0  0  0
    0.7621    1.3843   -1.2771 H   0  0  0  0  0  0  0  0  0  0  0  0
    1.6453   -2.0168   -1.1559 H   0  0  0  0  0  0  0  0  0  0  0  0
    2.0059   -1.4370    0.5025 H   0  0  0  0  0  0  0  0  0  0  0  0
    5.1898    0.9138   -0.1017 H   0  0  0  0  0  0  0  0  0  0  0  0
    2.6741    3.2347   -0.4718 H   0  0  0  0  0  0  0  0  0  0  0  0
   -1.3215   -3.1834    1.0711 H   0  0  0  0  0  0  0  0  0  0  0  0
   -3.8884   -1.0992    0.9323 H   0  0  0  0  0  0  0  0  0  0  0  0
  1  2  1  0
  2  3  2  0
  3  4  1  0
  4  5  2  0
  5  6  1  0
  6  7  1  0
  7  8  1  0
  8  9  2  0
  8 10  1  0
  8 11  1  0
  5 12  1  0
 12 13  1  0
 13 14  2  0
 12 15  2  0
 15 16  1  0
 15  2  1  0
  1 17  1  0
  1 18  1  0
  1 19  1  0
  4 20  1  0
  6 21  1  0
  6 22  1  0
 10 23  1  0
 11 24  1  0
 13 25  1  0
 16 26  1  0
M  END
$$$$

     RDKit          3D

 26 26  0  0  0  0  0  0  0  0999 V2000
   -3.6512   -2.0655   -0.5061 C   0  0  0  0  0  0  0  0  0  0  0  0
   -2.3407   -1.4164   -0.3389 C   0  0  0  0  0  0  0  0  0  0  0  0
   -1.1786   -2.0465   -0.4157 N   0  0  0  0  0  0  0  0  0  0  0  0
   -0.0429   -1.3702   -0.2497 C   0  0  0  0  0  0  0  0  0  0  0  0
    0.0382   -0.0224    0.0046 C   0  0  0  0  0  0  0  0  0  0  0  0
    1.3527    0.6534    0.1740 C   0  0  0  0  0  0  0  0  0  0  0  0
    2.4028   -0.2813    0.0402 O   0  0  0  0  0  0  0  0  0  0  0  0
    3.8527    0.5697    0.2463 P   0  0  0  0  0  5  0  0  0  0  0  0
    3.6142    1.8577    1.0290 O   0  0  0  0  0  0  0  0  0  0  0  0
    4.8676   -0.4130    1.2042 O   0  0  0  0  0  0  0  0  0  0  0  0
    4.5701    0.9852   -1.2007 O   0  0  0  0  0  0  0  0  0  0  0  0
   -1.1677    0.6815    0.0937 C   0  0  0  0  0  0  0  0  0  0  0  0
   -1.1309    2.1085    0.3628 C   0  0  0  0  0  0  0  0  0  0  0  0
   -0.0681    2.7522    0.5208 O   0  0  0  0  0  0  0  0  0  0  0  0
   -2.3254   -0.0409   -0.0818 C   0  0  0  0  0  0  0  0  0  0  0  0
   -3.5468    0.6047   -0.0042 O   0  0  0  0  0  0  0  0  0  0  0  0
   -3.6798   -3.0750   -0.0235 H   0  0  0  0  0  0  0  0  0  0  0  0
   -3.9415   -2.2023   -1.5676 H   0  0  0  0  0  0  0  0  0  0  0  0
   -4.4628   -1.4773   -0.0090 H   0  0  0  0  0  0  0  0  0  0  0  0
    0.8886   -1.9147   -0.3185 H   0  0  0  0  0  0  0  0  0  0  0  0
    1.5415    1.4667   -0.5234 H   0  0  0  0  0  0  0  0  0  0  0  0
    1.3855    1.0724    1.1986 H   0  0  0  0  0  0  0  0  0  0  0  0
    4.3459   -1.0751    1.7139 H   0  0  0  0  0  0  0  0  0  0  0  0
    4.3475    0.4057   -1.9589 H   0  0  0  0  0  0  0  0  0  0  0  0
   -2.0406    2.6640    0.4353 H   0  0  0  0  0  0  0  0  0  0  0  0
   -3.6302    1.5788    0.1745 H   0  0  0  0  0  0  0  0  0  0  0  0
  1  2  1  0
  2  3  2  0
  3  4  1  0
  4  5  2  0
  5  6  1  0
  6  7  1  0
  7  8  1  0
  8  9  2  0
  8 10  1  0
  8 11  1  0
  5 12  1  0
 12 13  1  0
 13 14  2  0
 12 15  2  0
 15 16  1  0
 15  2  1  0
  1 17  1  0
  1 18  1  0
  1 19  1  0
  4 20  1  0
  6 21  1  0
  6 22  1  0
 10 23  1  0
 11 24  1  0
 13 25  1  0
 16 26  1  0
M  END
$$$$

     RDKit          3D

 26 26  0  0  0  0  0  0  0  0999 V2000
   -3.8870   -1.6938   -0.2328 C   0  0  0  0  0  0  0  0  0  0  0  0
   -2.5301   -1.0927   -0.1291 C   0  0  0  0  0  0  0  0  0  0  0  0
   -1.4686   -1.8483    0.1683 N   0  0  0  0  0  0  0  0  0  0  0  0
   -0.2315   -1.3517    0.2719 C   0  0  0  0  0  0  0  0  0  0  0  0
   -0.0309   -0.0140    0.0669 C   0  0  0  0  0  0  0  0  0  0  0  0
    1.3345    0.5569    0.1773 C   0  0  0  0  0  0  0  0  0  0  0  0
    2.2102   -0.4463    0.4897 O   0  0  0  0  0  0  0  0  0  0  0  0
    3.7968    0.0470    0.6479 P   0  0  0  0  0  5  0  0  0  0  0  0
    3.8178    1.3110    1.4900 O   0  0  0  0  0  0  0  0  0  0  0  0
    4.5232    0.3812   -0.8429 O   0  0  0  0  0  0  0  0  0  0  0  0
    4.6505   -1.1776    1.4795 O   0  0  0  0  0  0  0  0  0  0  0  0
   -1.0963    0.8230   -0.2455 C   0  0  0  0  0  0  0  0  0  0  0  0
   -0.7943    2.2324   -0.4474 C   0  0  0  0  0  0  0  0  0  0  0  0
   -1.6595    3.0640   -0.7279 O   0  0  0  0  0  0  0  0  0  0  0  0
   -2.3417    0.2676   -0.3400 C   0  0  0  0  0  0  0  0  0  0  0  0
   -3.4562    0.9990   -0.6413 O   0  0  0  0  0  0  0  0  0  0  0  0
   -4.3918   -1.1953   -1.0915 H   0  0  0  0  0  0  0  0  0  0  0  0
   -4.4221   -1.5601    0.7095 H   0  0  0  0  0  0  0  0  0  0  0  0
   -3.7962   -2.7807   -0.4232 H   0  0  0  0  0  0  0  0  0  0  0  0
    0.6017   -2.0232    0.5192 H   0  0  0  0  0  0  0  0  0  0  0  0
    1.5591    1.0416   -0.8127 H   0  0  0  0  0  0  0  0  0  0  0  0
    1.2942    1.3663    0.9445 H   0  0  0  0  0  0  0  0  0  0  0  0
    4.0814   -0.2343   -1.5106 H   0  0  0  0  0  0  0  0  0  0  0  0
    5.5597   -1.2362    1.1311 H   0  0  0  0  0  0  0  0  0  0  0  0
    0.2280    2.6059   -0.3553 H   0  0  0  0  0  0  0  0  0  0  0  0
   -3.5506    1.9583   -0.8252 H   0  0  0  0  0  0  0  0  0  0  0  0
  1  2  1  0
  2  3  2  0
  3  4  1  0
  4  5  2  0
  5  6  1  0
  6  7  1  0
  7  8  1  0
  8  9  2  0
  8 10  1  0
  8 11  1  0
  5 12  1  0
 12 13  1  0
 13 14  2  0
 12 15  2  0
 15 16  1  0
 15  2  1  0
  1 17  1  0
  1 18  1  0
  1 19  1  0
  4 20  1  0
  6 21  1  0
  6 22  1  0
 10 23  1  0
 11 24  1  0
 13 25  1  0
 16 26  1  0
M  END
$$$$

     RDKit          3D

 26 26  0  0  0  0  0  0  0  0999 V2000
   -4.1327    1.0716    0.2190 C   0  0  0  0  0  0  0  0  0  0  0  0
   -2.6684    0.7379    0.2157 C   0  0  0  0  0  0  0  0  0  0  0  0
   -1.8196    1.3707    1.0442 N   0  0  0  0  0  0  0  0  0  0  0  0
   -0.4959    1.0875    1.0599 C   0  0  0  0  0  0  0  0  0  0  0  0
    0.0457    0.1263    0.2168 C   0  0  0  0  0  0  0  0  0  0  0  0
    1.4631   -0.2052    0.2101 C   0  0  0  0  0  0  0  0  0  0  0  0
    2.2117    0.5431    1.1261 O   0  0  0  0  0  0  0  0  0  0  0  0
    3.8192    0.0083    0.9607 P   0  0  0  0  0  5  0  0  0  0  0  0
    4.2339    0.2655   -0.4878 O   0  0  0  0  0  0  0  0  0  0  0  0
    4.8378    0.9285    1.9678 O   0  0  0  0  0  0  0  0  0  0  0  0
    3.9688   -1.6318    1.2331 O   0  0  0  0  0  0  0  0  0  0  0  0
   -0.8171   -0.5227   -0.6312 C   0  0  0  0  0  0  0  0  0  0  0  0
   -0.2819   -1.5307   -1.5257 C   0  0  0  0  0  0  0  0  0  0  0  0
    0.8855   -1.9002   -1.6334 O   0  0  0  0  0  0  0  0  0  0  0  0
   -2.1812   -0.2242   -0.6405 C   0  0  0  0  0  0  0  0  0  0  0  0
   -3.0292   -0.8903   -1.5022 O   0  0  0  0  0  0  0  0  0  0  0  0
   -4.3121    1.7740   -0.6300 H   0  0  0  0  0  0  0  0  0  0  0  0
   -4.7192    0.1502    0.1132 H   0  0  0  0  0  0  0  0  0  0  0  0
   -4.3408    1.5749    1.1952 H   0  0  0  0  0  0  0  0  0  0  0  0
    0.1672    1.6186    1.7440 H   0  0  0  0  0  0  0  0  0  0  0  0
    1.6919   -1.2662    0.4404 H   0  0  0  0  0  0  0  0  0  0  0  0
    1.9094    0.0087   -0.7821 H   0  0  0  0  0  0  0  0  0  0  0  0
    4.4467    1.8318    2.0054 H   0  0  0  0  0  0  0  0  0  0  0  0
    4.1267   -2.1527    0.4213 H   0  0  0  0  0  0  0  0  0  0  0  0
   -1.0031   -2.0296   -2.1919 H   0  0  0  0  0  0  0  0  0  0  0  0
   -4.0062   -0.7441   -1.5768 H   0  0  0  0  0  0  0  0  0  0  0  0
  1  2  1  0
  2  3  2  0
  3  4  1  0
  4  5  2  0
  5  6  1  0
  6  7  1  0
  7  8  1  0
  8  9  2  0
  8 10  1  0
  8 11  1  0
  5 12  1  0
 12 13  1  0
 13 14  2  0
 12 15  2  0
 15 16  1  0
 15  2  1  0
  1 17  1  0
  1 18  1  0
  1 19  1  0
  4 20  1  0
  6 21  1  0
  6 22  1  0
 10 23  1  0
 11 24  1  0
 13 25  1  0
 16 26  1  0
M  END
$$$$

     RDKit          3D

 26 26  0  0  0  0  0  0  0  0999 V2000
   -2.4281   -2.0114    2.2452 C   0  0  0  0  0  0  0  0  0  0  0  0
   -1.6041   -1.2623    1.2695 C   0  0  0  0  0  0  0  0  0  0  0  0
   -0.7579   -1.8842    0.4801 N   0  0  0  0  0  0  0  0  0  0  0  0
   -0.0170   -1.1904   -0.3997 C   0  0  0  0  0  0  0  0  0  0  0  0
   -0.1195    0.1749   -0.4984 C   0  0  0  0  0  0  0  0  0  0  0  0
    0.6498    0.9769   -1.4578 C   0  0  0  0  0  0  0  0  0  0  0  0
    1.5469    0.2689   -2.1839 O   0  0  0  0  0  0  0  0  0  0  0  0
    2.8321   -0.4053   -1.3725 P   0  0  0  0  0  5  0  0  0  0  0  0
    3.1465   -1.7599   -1.9639 O   0  0  0  0  0  0  0  0  0  0  0  0
    2.6228   -0.5619    0.2856 O   0  0  0  0  0  0  0  0  0  0  0  0
    4.1989    0.5603   -1.7191 O   0  0  0  0  0  0  0  0  0  0  0  0
   -1.0202    0.8824    0.3323 C   0  0  0  0  0  0  0  0  0  0  0  0
   -1.1074    2.3221    0.1818 C   0  0  0  0  0  0  0  0  0  0  0  0
   -1.8777    3.0267    0.8644 O   0  0  0  0  0  0  0  0  0  0  0  0
   -1.7580    0.1356    1.2167 C   0  0  0  0  0  0  0  0  0  0  0  0
   -2.6476    0.7392    2.0535 O   0  0  0  0  0  0  0  0  0  0  0  0
   -1.8412   -2.2057    3.1814 H   0  0  0  0  0  0  0  0  0  0  0  0
   -3.3533   -1.4227    2.4661 H   0  0  0  0  0  0  0  0  0  0  0  0
   -2.6765   -2.9898    1.7761 H   0  0  0  0  0  0  0  0  0  0  0  0
    0.6397   -1.7432   -1.0515 H   0  0  0  0  0  0  0  0  0  0  0  0
   -0.0895    1.4235   -2.1729 H   0  0  0  0  0  0  0  0  0  0  0  0
    1.1311    1.8581   -0.9394 H   0  0  0  0  0  0  0  0  0  0  0  0
    3.4910   -0.4690    0.7750 H   0  0  0  0  0  0  0  0  0  0  0  0
    4.4138    1.0352   -0.8990 H   0  0  0  0  0  0  0  0  0  0  0  0
   -0.4852    2.8486   -0.5547 H   0  0  0  0  0  0  0  0  0  0  0  0
   -2.8892    1.6535    2.1671 H   0  0  0  0  0  0  0  0  0  0  0  0
  1  2  1  0
  2  3  2  0
  3  4  1  0
  4  5  2  0
  5  6  1  0
  6  7  1  0
  7  8  1  0
  8  9  2  0
  8 10  1  0
  8 11  1  0
  5 12  1  0
 12 13  1  0
 13 14  2  0
 12 15  2  0
 15 16  1  0
 15  2  1  0
  1 17  1  0
  1 18  1  0
  1 19  1  0
  4 20  1  0
  6 21  1  0
  6 22  1  0
 10 23  1  0
 11 24  1  0
 13 25  1  0
 16 26  1  0
M  END
$$$$

     RDKit          3D

 26 26  0  0  0  0  0  0  0  0999 V2000
   -3.8782    1.4641   -0.0230 C   0  0  0  0  0  0  0  0  0  0  0  0
   -2.5029    0.9119    0.0520 C   0  0  0  0  0  0  0  0  0  0  0  0
   -1.4861    1.7874    0.1546 N   0  0  0  0  0  0  0  0  0  0  0  0
   -0.2135    1.3682    0.2273 C   0  0  0  0  0  0  0  0  0  0  0  0
    0.0357    0.0172    0.1949 C   0  0  0  0  0  0  0  0  0  0  0  0
    1.4566   -0.4386    0.2766 C   0  0  0  0  0  0  0  0  0  0  0  0
    2.2664    0.6566    0.3728 O   0  0  0  0  0  0  0  0  0  0  0  0
    3.8935    0.3185    0.4731 P   0  0  0  0  0  5  0  0  0  0  0  0
    4.2620   -0.0635    1.8941 O   0  0  0  0  0  0  0  0  0  0  0  0
    4.7622    1.7110    0.0562 O   0  0  0  0  0  0  0  0  0  0  0  0
    4.3362   -0.8902   -0.6249 O   0  0  0  0  0  0  0  0  0  0  0  0
   -0.9855   -0.9016    0.0905 C   0  0  0  0  0  0  0  0  0  0  0  0
   -0.6824   -2.3359    0.0588 C   0  0  0  0  0  0  0  0  0  0  0  0
   -1.6083   -3.1747   -0.0361 O   0  0  0  0  0  0  0  0  0  0  0  0
   -2.2752   -0.4451    0.0180 C   0  0  0  0  0  0  0  0  0  0  0  0
   -3.3023   -1.3644   -0.0870 O   0  0  0  0  0  0  0  0  0  0  0  0
   -4.6225    0.7991    0.4629 H   0  0  0  0  0  0  0  0  0  0  0  0
   -3.8864    2.4794    0.4181 H   0  0  0  0  0  0  0  0  0  0  0  0
   -4.1333    1.5602   -1.0997 H   0  0  0  0  0  0  0  0  0  0  0  0
    0.5707    2.1198    0.3091 H   0  0  0  0  0  0  0  0  0  0  0  0
    1.6283   -1.0429   -0.6520 H   0  0  0  0  0  0  0  0  0  0  0  0
    1.5610   -1.1137    1.1535 H   0  0  0  0  0  0  0  0  0  0  0  0
    4.2988    2.1437   -0.7029 H   0  0  0  0  0  0  0  0  0  0  0  0
    4.4321   -1.7659   -0.1784 H   0  0  0  0  0  0  0  0  0  0  0  0
    0.3322   -2.6923    0.1160 H   0  0  0  0  0  0  0  0  0  0  0  0
   -4.2594   -1.1083   -0.1445 H   0  0  0  0  0  0  0  0  0  0  0  0
  1  2  1  0
  2  3  2  0
  3  4  1  0
  4  5  2  0
  5  6  1  0
  6  7  1  0
  7  8  1  0
  8  9  2  0
  8 10  1  0
  8 11  1  0
  5 12  1  0
 12 13  1  0
 13 14  2  0
 12 15  2  0
 15 16  1  0
 15  2  1  0
  1 17  1  0
  1 18  1  0
  1 19  1  0
  4 20  1  0
  6 21  1  0
  6 22  1  0
 10 23  1  0
 11 24  1  0
 13 25  1  0
 16 26  1  0
M  END
$$$$

     RDKit          3D

 26 26  0  0  0  0  0  0  0  0999 V2000
   -4.1311    1.1250   -0.1408 C   0  0  0  0  0  0  0  0  0  0  0  0
   -2.6670    0.8262   -0.1235 C   0  0  0  0  0  0  0  0  0  0  0  0
   -1.7512    1.7397    0.2085 N   0  0  0  0  0  0  0  0  0  0  0  0
   -0.4270    1.4460    0.2172 C   0  0  0  0  0  0  0  0  0  0  0  0
    0.0366    0.2008   -0.1131 C   0  0  0  0  0  0  0  0  0  0  0  0
    1.4597   -0.1328   -0.1090 C   0  0  0  0  0  0  0  0  0  0  0  0
    2.2607    0.9332    0.2594 O   0  0  0  0  0  0  0  0  0  0  0  0
    3.8683    0.4059    0.2202 P   0  0  0  0  0  5  0  0  0  0  0  0
    4.2204   -0.0115    1.6454 O   0  0  0  0  0  0  0  0  0  0  0  0
    3.9872   -0.8588   -0.8607 O   0  0  0  0  0  0  0  0  0  0  0  0
    4.9135    1.6619   -0.2130 O   0  0  0  0  0  0  0  0  0  0  0  0
   -0.8790   -0.7993   -0.4704 C   0  0  0  0  0  0  0  0  0  0  0  0
   -0.3781   -2.1254   -0.8218 C   0  0  0  0  0  0  0  0  0  0  0  0
   -1.0627   -3.0917   -1.1526 O   0  0  0  0  0  0  0  0  0  0  0  0
   -2.2124   -0.4473   -0.4628 C   0  0  0  0  0  0  0  0  0  0  0  0
   -3.1625   -1.3644   -0.7983 O   0  0  0  0  0  0  0  0  0  0  0  0
   -4.3435    2.0444    0.4057 H   0  0  0  0  0  0  0  0  0  0  0  0
   -4.4887    1.1446   -1.1943 H   0  0  0  0  0  0  0  0  0  0  0  0
   -4.6507    0.2505    0.3509 H   0  0  0  0  0  0  0  0  0  0  0  0
    0.2590    2.2543    0.5022 H   0  0  0  0  0  0  0  0  0  0  0  0
    1.7770   -0.4442   -1.1366 H   0  0  0  0  0  0  0  0  0  0  0  0
    1.6017   -1.0190    0.5563 H   0  0  0  0  0  0  0  0  0  0  0  0
    3.7132   -1.7062   -0.4004 H   0  0  0  0  0  0  0  0  0  0  0  0
    4.4502    2.5394   -0.2622 H   0  0  0  0  0  0  0  0  0  0  0  0
    0.7142   -2.2788   -0.7886 H   0  0  0  0  0  0  0  0  0  0  0  0
   -3.1077   -2.2925   -1.0653 H   0  0  0  0  0  0  0  0  0  0  0  0
  1  2  1  0
  2  3  2  0
  3  4  1  0
  4  5  2  0
  5  6  1  0
  6  7  1  0
  7  8  1  0
  8  9  2  0
  8 10  1  0
  8 11  1  0
  5 12  1  0
 12 13  1  0
 13 14  2  0
 12 15  2  0
 15 16  1  0
 15  2  1  0
  1 17  1  0
  1 18  1  0
  1 19  1  0
  4 20  1  0
  6 21  1  0
  6 22  1  0
 10 23  1  0
 11 24  1  0
 13 25  1  0
 16 26  1  0
M  END
$$$$

     RDKit          3D

 26 26  0  0  0  0  0  0  0  0999 V2000
    2.8882    2.0985    1.0500 C   0  0  0  0  0  0  0  0  0  0  0  0
    1.7970    1.2833    0.4536 C   0  0  0  0  0  0  0  0  0  0  0  0
    0.5793    1.7786    0.2393 N   0  0  0  0  0  0  0  0  0  0  0  0
   -0.3981    1.0046   -0.3080 C   0  0  0  0  0  0  0  0  0  0  0  0
   -0.2188   -0.3098   -0.6722 C   0  0  0  0  0  0  0  0  0  0  0  0
   -1.2797   -1.1171   -1.2919 C   0  0  0  0  0  0  0  0  0  0  0  0
   -2.4827   -0.4421   -1.3442 O   0  0  0  0  0  0  0  0  0  0  0  0
   -3.1849   -0.1601    0.1580 P   0  0  0  0  0  5  0  0  0  0  0  0
   -4.2570   -1.2493    0.4186 O   0  0  0  0  0  0  0  0  0  0  0  0
   -2.1103   -0.2123    1.4412 O   0  0  0  0  0  0  0  0  0  0  0  0
   -3.9387    1.3502    0.1181 O   0  0  0  0  0  0  0  0  0  0  0  0
    1.0562   -0.8553   -0.4588 C   0  0  0  0  0  0  0  0  0  0  0  0
    1.2921   -2.2277   -0.8483 C   0  0  0  0  0  0  0  0  0  0  0  0
    0.4671   -3.0062   -1.3590 O   0  0  0  0  0  0  0  0  0  0  0  0
    2.0154   -0.0509    0.0925 C   0  0  0  0  0  0  0  0  0  0  0  0
    3.2831   -0.5400    0.3234 O   0  0  0  0  0  0  0  0  0  0  0  0
    2.4596    3.0280    1.4607 H   0  0  0  0  0  0  0  0  0  0  0  0
    3.3432    1.5645    1.9224 H   0  0  0  0  0  0  0  0  0  0  0  0
    3.6636    2.2892    0.2962 H   0  0  0  0  0  0  0  0  0  0  0  0
   -1.3429    1.4883   -0.4854 H   0  0  0  0  0  0  0  0  0  0  0  0
   -1.4115   -2.0686   -0.6887 H   0  0  0  0  0  0  0  0  0  0  0  0
   -0.9952   -1.4027   -2.3322 H   0  0  0  0  0  0  0  0  0  0  0  0
   -2.2548    0.5769    2.0192 H   0  0  0  0  0  0  0  0  0  0  0  0
   -4.8777    1.3073    0.3584 H   0  0  0  0  0  0  0  0  0  0  0  0
    2.2926   -2.6725   -0.6952 H   0  0  0  0  0  0  0  0  0  0  0  0
    3.6150   -1.4549    0.1324 H   0  0  0  0  0  0  0  0  0  0  0  0
  1  2  1  0
  2  3  2  0
  3  4  1  0
  4  5  2  0
  5  6  1  0
  6  7  1  0
  7  8  1  0
  8  9  2  0
  8 10  1  0
  8 11  1  0
  5 12  1  0
 12 13  1  0
 13 14  2  0
 12 15  2  0
 15 16  1  0
 15  2  1  0
  1 17  1  0
  1 18  1  0
  1 19  1  0
  4 20  1  0
  6 21  1  0
  6 22  1  0
 10 23  1  0
 11 24  1  0
 13 25  1  0
 16 26  1  0
M  END
$$$$

     RDKit          3D

 26 26  0  0  0  0  0  0  0  0999 V2000
   -4.1360   -0.9444   -0.5574 C   0  0  0  0  0  0  0  0  0  0  0  0
   -2.6835   -0.6724   -0.4615 C   0  0  0  0  0  0  0  0  0  0  0  0
   -1.7960   -1.3872   -1.1531 N   0  0  0  0  0  0  0  0  0  0  0  0
   -0.4825   -1.1086   -1.0387 C   0  0  0  0  0  0  0  0  0  0  0  0
   -0.0128   -0.1046   -0.2278 C   0  0  0  0  0  0  0  0  0  0  0  0
    1.4227    0.2098   -0.0948 C   0  0  0  0  0  0  0  0  0  0  0  0
    2.1989   -0.6176   -0.8713 O   0  0  0  0  0  0  0  0  0  0  0  0
    3.8253   -0.2700   -0.7279 P   0  0  0  0  0  5  0  0  0  0  0  0
    4.3283    0.5203   -1.9040 O   0  0  0  0  0  0  0  0  0  0  0  0
    4.0935    0.5398    0.7377 O   0  0  0  0  0  0  0  0  0  0  0  0
    4.7415   -1.7098   -0.6565 O   0  0  0  0  0  0  0  0  0  0  0  0
   -0.9471    0.6408    0.4943 C   0  0  0  0  0  0  0  0  0  0  0  0
   -0.4176    1.6817    1.3317 C   0  0  0  0  0  0  0  0  0  0  0  0
   -1.1251    2.4173    2.0247 O   0  0  0  0  0  0  0  0  0  0  0  0
   -2.2887    0.3814    0.3988 C   0  0  0  0  0  0  0  0  0  0  0  0
   -3.2537    1.0673    1.0730 O   0  0  0  0  0  0  0  0  0  0  0  0
   -4.4158   -1.4998    0.3729 H   0  0  0  0  0  0  0  0  0  0  0  0
   -4.7065   -0.0083   -0.6817 H   0  0  0  0  0  0  0  0  0  0  0  0
   -4.3037   -1.6215   -1.4136 H   0  0  0  0  0  0  0  0  0  0  0  0
    0.2356   -1.6886   -1.5997 H   0  0  0  0  0  0  0  0  0  0  0  0
    1.5857    1.2871   -0.3131 H   0  0  0  0  0  0  0  0  0  0  0  0
    1.6840    0.0633    0.9823 H   0  0  0  0  0  0  0  0  0  0  0  0
    4.5285    1.3903    0.5455 H   0  0  0  0  0  0  0  0  0  0  0  0
    4.3851   -2.2558    0.0871 H   0  0  0  0  0  0  0  0  0  0  0  0
    0.6632    1.8849    1.4037 H   0  0  0  0  0  0  0  0  0  0  0  0
   -3.1233    1.8046    1.6885 H   0  0  0  0  0  0  0  0  0  0  0  0
  1  2  1  0
  2  3  2  0
  3  4  1  0
  4  5  2  0
  5  6  1  0
  6  7  1  0
  7  8  1  0
  8  9  2  0
  8 10  1  0
  8 11  1  0
  5 12  1  0
 12 13  1  0
 13 14  2  0
 12 15  2  0
 15 16  1  0
 15  2  1  0
  1 17  1  0
  1 18  1  0
  1 19  1  0
  4 20  1  0
  6 21  1  0
  6 22  1  0
 10 23  1  0
 11 24  1  0
 13 25  1  0
 16 26  1  0
M  END
$$$$

     RDKit          3D

 26 26  0  0  0  0  0  0  0  0999 V2000
    3.8805    1.5206   -0.1025 C   0  0  0  0  0  0  0  0  0  0  0  0
    2.5071    0.9550   -0.0122 C   0  0  0  0  0  0  0  0  0  0  0  0
    1.4563    1.7848    0.0628 N   0  0  0  0  0  0  0  0  0  0  0  0
    0.1984    1.3394    0.1459 C   0  0  0  0  0  0  0  0  0  0  0  0
   -0.0975   -0.0195    0.1596 C   0  0  0  0  0  0  0  0  0  0  0  0
   -1.5090   -0.5133    0.2528 C   0  0  0  0  0  0  0  0  0  0  0  0
   -2.3301    0.5863    0.3135 O   0  0  0  0  0  0  0  0  0  0  0  0
   -3.9535    0.2215    0.4217 P   0  0  0  0  0  5  0  0  0  0  0  0
   -4.2944   -0.1885    1.8572 O   0  0  0  0  0  0  0  0  0  0  0  0
   -4.4297   -0.9736   -0.6691 O   0  0  0  0  0  0  0  0  0  0  0  0
   -4.8748    1.6049    0.1000 O   0  0  0  0  0  0  0  0  0  0  0  0
    0.9570   -0.8844    0.0842 C   0  0  0  0  0  0  0  0  0  0  0  0
    0.7688   -2.3176    0.0902 C   0  0  0  0  0  0  0  0  0  0  0  0
    1.7318   -3.1243    0.0213 O   0  0  0  0  0  0  0  0  0  0  0  0
    2.2640   -0.3980   -0.0020 C   0  0  0  0  0  0  0  0  0  0  0  0
    3.3295   -1.2712   -0.0782 O   0  0  0  0  0  0  0  0  0  0  0  0
    4.2438    1.4925   -1.1467 H   0  0  0  0  0  0  0  0  0  0  0  0
    3.8588    2.5664    0.2309 H   0  0  0  0  0  0  0  0  0  0  0  0
    4.5478    0.9774    0.6044 H   0  0  0  0  0  0  0  0  0  0  0  0
   -0.6623    2.0038    0.2073 H   0  0  0  0  0  0  0  0  0  0  0  0
   -1.7585   -1.2121   -0.5534 H   0  0  0  0  0  0  0  0  0  0  0  0
   -1.6083   -1.0603    1.2235 H   0  0  0  0  0  0  0  0  0  0  0  0
   -3.9432   -1.8234   -0.5292 H   0  0  0  0  0  0  0  0  0  0  0  0
   -4.3140    2.3459   -0.2171 H   0  0  0  0  0  0  0  0  0  0  0  0
   -0.2269   -2.7119    0.1557 H   0  0  0  0  0  0  0  0  0  0  0  0
    4.2586   -0.9003   -0.1393 H   0  0  0  0  0  0  0  0  0  0  0  0
  1  2  1  0
  2  3  2  0
  3  4  1  0
  4  5  2  0
  5  6  1  0
  6  7  1  0
  7  8  1  0
  8  9  2  0
  8 10  1  0
  8 11  1  0
  5 12  1  0
 12 13  1  0
 13 14  2  0
 12 15  2  0
 15 16  1  0
 15  2  1  0
  1 17  1  0
  1 18  1  0
  1 19  1  0
  4 20  1  0
  6 21  1  0
  6 22  1  0
 10 23  1  0
 11 24  1  0
 13 25  1  0
 16 26  1  0
M  END
$$$$

     RDKit          3D

 26 26  0  0  0  0  0  0  0  0999 V2000
   -4.2580   -0.8906    0.0424 C   0  0  0  0  0  0  0  0  0  0  0  0
   -2.8107   -0.6563    0.0348 C   0  0  0  0  0  0  0  0  0  0  0  0
   -1.9228   -1.6482    0.0416 N   0  0  0  0  0  0  0  0  0  0  0  0
   -0.6053   -1.4021    0.0344 C   0  0  0  0  0  0  0  0  0  0  0  0
   -0.0766   -0.1557    0.0201 C   0  0  0  0  0  0  0  0  0  0  0  0
    1.3724    0.1380    0.0120 C   0  0  0  0  0  0  0  0  0  0  0  0
    2.1043   -1.0493    0.0213 O   0  0  0  0  0  0  0  0  0  0  0  0
    3.7473   -0.6216    0.0111 P   0  0  0  0  0  5  0  0  0  0  0  0
    3.8908    0.7611    0.6195 O   0  0  0  0  0  0  0  0  0  0  0  0
    4.6493   -1.7561    0.9104 O   0  0  0  0  0  0  0  0  0  0  0  0
    4.3202   -0.6522   -1.5885 O   0  0  0  0  0  0  0  0  0  0  0  0
   -0.9711    0.9371    0.0123 C   0  0  0  0  0  0  0  0  0  0  0  0
   -0.4220    2.2529   -0.0028 C   0  0  0  0  0  0  0  0  0  0  0  0
   -1.0958    3.2844   -0.0107 O   0  0  0  0  0  0  0  0  0  0  0  0
   -2.3128    0.6618    0.0198 C   0  0  0  0  0  0  0  0  0  0  0  0
   -3.2740    1.6363    0.0135 O   0  0  0  0  0  0  0  0  0  0  0  0
   -4.5374   -1.6493   -0.7196 H   0  0  0  0  0  0  0  0  0  0  0  0
   -4.8135    0.0542   -0.1293 H   0  0  0  0  0  0  0  0  0  0  0  0
   -4.6271   -1.3192    1.0190 H   0  0  0  0  0  0  0  0  0  0  0  0
    0.0835   -2.2506    0.0405 H   0  0  0  0  0  0  0  0  0  0  0  0
    1.6726    0.6941    0.9253 H   0  0  0  0  0  0  0  0  0  0  0  0
    1.6731    0.7018   -0.8841 H   0  0  0  0  0  0  0  0  0  0  0  0
    5.5140   -1.3404    1.1887 H   0  0  0  0  0  0  0  0  0  0  0  0
    5.1509   -0.1164   -1.6269 H   0  0  0  0  0  0  0  0  0  0  0  0
    0.6591    2.4097   -0.0082 H   0  0  0  0  0  0  0  0  0  0  0  0
   -3.1103    2.5938    0.0033 H   0  0  0  0  0  0  0  0  0  0  0  0
  1  2  1  0
  2  3  2  0
  3  4  1  0
  4  5  2  0
  5  6  1  0
  6  7  1  0
  7  8  1  0
  8  9  2  0
  8 10  1  0
  8 11  1  0
  5 12  1  0
 12 13  1  0
 13 14  2  0
 12 15  2  0
 15 16  1  0
 15  2  1  0
  1 17  1  0
  1 18  1  0
  1 19  1  0
  4 20  1  0
  6 21  1  0
  6 22  1  0
 10 23  1  0
 11 24  1  0
 13 25  1  0
 16 26  1  0
M  END
$$$$

     RDKit          3D

 26 26  0  0  0  0  0  0  0  0999 V2000
    3.5243    1.7659   -0.4174 C   0  0  0  0  0  0  0  0  0  0  0  0
    2.2788    0.9570   -0.3929 C   0  0  0  0  0  0  0  0  0  0  0  0
    1.3956    0.9849   -1.3881 N   0  0  0  0  0  0  0  0  0  0  0  0
    0.2488    0.2274   -1.3471 C   0  0  0  0  0  0  0  0  0  0  0  0
   -0.0241   -0.5736   -0.2841 C   0  0  0  0  0  0  0  0  0  0  0  0
   -1.1415   -1.5582   -0.3246 C   0  0  0  0  0  0  0  0  0  0  0  0
   -2.2720   -0.9690   -0.2921 O   0  0  0  0  0  0  0  0  0  0  0  0
   -3.3296   -0.0627   -0.8382 P   0  0  0  0  0  5  0  0  0  0  0  0
   -3.8292   -0.1229   -2.2542 O   0  0  0  0  0  0  0  0  0  0  0  0
   -4.8089   -0.1534    0.1335 O   0  0  0  0  0  0  0  0  0  0  0  0
   -2.8248    1.6259   -0.6310 O   0  0  0  0  0  0  0  0  0  0  0  0
    0.8724   -0.6160    0.7721 C   0  0  0  0  0  0  0  0  0  0  0  0
    0.5575   -1.2777    2.0195 C   0  0  0  0  0  0  0  0  0  0  0  0
   -0.4997   -2.0343    1.9736 O   0  0  0  0  0  0  0  0  0  0  0  0
    1.9996    0.1438    0.7034 C   0  0  0  0  0  0  0  0  0  0  0  0
    2.9435    0.1470    1.7458 O   0  0  0  0  0  0  0  0  0  0  0  0
    4.2931    1.0483   -0.9411 H   0  0  0  0  0  0  0  0  0  0  0  0
    3.9427    1.8962    0.5490 H   0  0  0  0  0  0  0  0  0  0  0  0
    3.4721    2.6307   -1.0734 H   0  0  0  0  0  0  0  0  0  0  0  0
   -0.4880    0.3186   -2.1743 H   0  0  0  0  0  0  0  0  0  0  0  0
   -0.9016   -2.5254    0.1407 H   0  0  0  0  0  0  0  0  0  0  0  0
   -1.0429   -1.9557   -1.5290 H   0  0  0  0  0  0  0  0  0  0  0  0
   -4.5683   -0.5324    1.0285 H   0  0  0  0  0  0  0  0  0  0  0  0
   -3.6091    2.1970   -0.6672 H   0  0  0  0  0  0  0  0  0  0  0  0
    1.0653   -1.1883    2.9141 H   0  0  0  0  0  0  0  0  0  0  0  0
    2.7460   -0.3731    2.5746 H   0  0  0  0  0  0  0  0  0  0  0  0
  1  2  1  0
  2  3  2  0
  3  4  1  0
  4  5  2  0
  5  6  1  0
  6  7  1  0
  7  8  1  0
  8  9  2  0
  8 10  1  0
  8 11  1  0
  5 12  1  0
 12 13  1  0
 13 14  2  0
 12 15  2  0
 15 16  1  0
 15  2  1  0
  1 17  1  0
  1 18  1  0
  1 19  1  0
  4 20  1  0
  6 21  1  0
  6 22  1  0
 10 23  1  0
 11 24  1  0
 13 25  1  0
 16 26  1  0
M  END
$$$$

     RDKit          3D

 26 26  0  0  0  0  0  0  0  0999 V2000
    4.0461    0.7226   -1.0773 C   0  0  0  0  0  0  0  0  0  0  0  0
    2.6024    0.5350   -0.8032 C   0  0  0  0  0  0  0  0  0  0  0  0
    1.6492    1.1596   -1.4724 N   0  0  0  0  0  0  0  0  0  0  0  0
    0.3341    0.9989   -1.2343 C   0  0  0  0  0  0  0  0  0  0  0  0
   -0.0527    0.1460   -0.2492 C   0  0  0  0  0  0  0  0  0  0  0  0
   -1.4837   -0.0878    0.0768 C   0  0  0  0  0  0  0  0  0  0  0  0
   -2.3379    0.6408   -0.7147 O   0  0  0  0  0  0  0  0  0  0  0  0
   -3.9236    0.3330   -0.2981 P   0  0  0  0  0  5  0  0  0  0  0  0
   -4.8751    0.7038   -1.4175 O   0  0  0  0  0  0  0  0  0  0  0  0
   -4.2042   -1.2773    0.1028 O   0  0  0  0  0  0  0  0  0  0  0  0
   -4.3439    1.3224    1.0314 O   0  0  0  0  0  0  0  0  0  0  0  0
    0.8865   -0.5631    0.5164 C   0  0  0  0  0  0  0  0  0  0  0  0
    0.4284   -1.4691    1.5647 C   0  0  0  0  0  0  0  0  0  0  0  0
    1.1987   -2.1324    2.2855 O   0  0  0  0  0  0  0  0  0  0  0  0
    2.2153   -0.3527    0.2213 C   0  0  0  0  0  0  0  0  0  0  0  0
    3.2185   -0.9729    0.8833 O   0  0  0  0  0  0  0  0  0  0  0  0
    4.3273    0.1418   -1.9761 H   0  0  0  0  0  0  0  0  0  0  0  0
    4.6553    0.3281   -0.2256 H   0  0  0  0  0  0  0  0  0  0  0  0
    4.2492    1.7994   -1.2329 H   0  0  0  0  0  0  0  0  0  0  0  0
   -0.3915    1.5420   -1.8205 H   0  0  0  0  0  0  0  0  0  0  0  0
   -1.6181    0.2910    1.1315 H   0  0  0  0  0  0  0  0  0  0  0  0
   -1.7062   -1.1494   -0.0181 H   0  0  0  0  0  0  0  0  0  0  0  0
   -3.6040   -1.6230    0.7886 H   0  0  0  0  0  0  0  0  0  0  0  0
   -3.8012    2.1435    0.9434 H   0  0  0  0  0  0  0  0  0  0  0  0
   -0.6554   -1.5637    1.7179 H   0  0  0  0  0  0  0  0  0  0  0  0
    3.1866   -1.6166    1.6158 H   0  0  0  0  0  0  0  0  0  0  0  0
  1  2  1  0
  2  3  2  0
  3  4  1  0
  4  5  2  0
  5  6  1  0
  6  7  1  0
  7  8  1  0
  8  9  2  0
  8 10  1  0
  8 11  1  0
  5 12  1  0
 12 13  1  0
 13 14  2  0
 12 15  2  0
 15 16  1  0
 15  2  1  0
  1 17  1  0
  1 18  1  0
  1 19  1  0
  4 20  1  0
  6 21  1  0
  6 22  1  0
 10 23  1  0
 11 24  1  0
 13 25  1  0
 16 26  1  0
M  END
$$$$

     RDKit          3D

 26 26  0  0  0  0  0  0  0  0999 V2000
   -4.1416    0.8054    0.5198 C   0  0  0  0  0  0  0  0  0  0  0  0
   -2.6848    0.7420    0.4360 C   0  0  0  0  0  0  0  0  0  0  0  0
   -1.8806    1.6554    0.8808 N   0  0  0  0  0  0  0  0  0  0  0  0
   -0.5701    1.6561    0.7408 C   0  0  0  0  0  0  0  0  0  0  0  0
    0.0022    0.5725    0.0689 C   0  0  0  0  0  0  0  0  0  0  0  0
    1.4199    0.3406   -0.1498 C   0  0  0  0  0  0  0  0  0  0  0  0
    2.2416    0.4425    1.0036 O   0  0  0  0  0  0  0  0  0  0  0  0
    3.7500   -0.1638    0.4057 P   0  0  0  0  0  5  0  0  0  0  0  0
    4.7477    0.1208    1.4942 O   0  0  0  0  0  0  0  0  0  0  0  0
    3.6097   -1.7769    0.0657 O   0  0  0  0  0  0  0  0  0  0  0  0
    4.1186    0.7281   -1.0100 O   0  0  0  0  0  0  0  0  0  0  0  0
   -0.8193   -0.4357   -0.4525 C   0  0  0  0  0  0  0  0  0  0  0  0
   -0.2603   -1.4276   -1.3737 C   0  0  0  0  0  0  0  0  0  0  0  0
   -1.1461   -2.1668   -1.9273 O   0  0  0  0  0  0  0  0  0  0  0  0
   -2.1616   -0.4264   -0.2974 C   0  0  0  0  0  0  0  0  0  0  0  0
   -2.9463   -1.3690   -0.7146 O   0  0  0  0  0  0  0  0  0  0  0  0
   -4.5773    0.5658   -0.4991 H   0  0  0  0  0  0  0  0  0  0  0  0
   -4.4709    0.0482    1.1954 H   0  0  0  0  0  0  0  0  0  0  0  0
   -4.4464    1.7961    0.8362 H   0  0  0  0  0  0  0  0  0  0  0  0
    0.1221    2.4948    1.0337 H   0  0  0  0  0  0  0  0  0  0  0  0
    1.7411    1.5331   -0.5492 H   0  0  0  0  0  0  0  0  0  0  0  0
    1.7638   -0.1412   -0.9841 H   0  0  0  0  0  0  0  0  0  0  0  0
    4.3191   -2.1369   -0.5670 H   0  0  0  0  0  0  0  0  0  0  0  0
    4.7499    0.2874   -1.5743 H   0  0  0  0  0  0  0  0  0  0  0  0
    0.7817   -1.5862   -1.6537 H   0  0  0  0  0  0  0  0  0  0  0  0
   -3.2622   -2.1583   -1.0785 H   0  0  0  0  0  0  0  0  0  0  0  0
  1  2  1  0
  2  3  2  0
  3  4  1  0
  4  5  2  0
  5  6  1  0
  6  7  1  0
  7  8  1  0
  8  9  2  0
  8 10  1  0
  8 11  1  0
  5 12  1  0
 12 13  1  0
 13 14  2  0
 12 15  2  0
 15 16  1  0
 15  2  1  0
  1 17  1  0
  1 18  1  0
  1 19  1  0
  4 20  1  0
  6 21  1  0
  6 22  1  0
 10 23  1  0
 11 24  1  0
 13 25  1  0
 16 26  1  0
M  END
$$$$

     RDKit          3D

 26 26  0  0  0  0  0  0  0  0999 V2000
   -3.9623    1.4391   -0.3529 C   0  0  0  0  0  0  0  0  0  0  0  0
   -2.5608    0.9367   -0.2138 C   0  0  0  0  0  0  0  0  0  0  0  0
   -1.6118    1.8582    0.0049 N   0  0  0  0  0  0  0  0  0  0  0  0
   -0.3374    1.4554    0.1367 C   0  0  0  0  0  0  0  0  0  0  0  0
   -0.0392    0.1234    0.0454 C   0  0  0  0  0  0  0  0  0  0  0  0
    1.3765   -0.3042    0.1938 C   0  0  0  0  0  0  0  0  0  0  0  0
    2.1705    0.7927    0.4090 O   0  0  0  0  0  0  0  0  0  0  0  0
    3.7909    0.4400    0.5923 P   0  0  0  0  0  5  0  0  0  0  0  0
    4.5163    1.5060    1.3901 O   0  0  0  0  0  0  0  0  0  0  0  0
    4.4947    0.4406   -0.9566 O   0  0  0  0  0  0  0  0  0  0  0  0
    4.0636   -1.0457    1.3473 O   0  0  0  0  0  0  0  0  0  0  0  0
   -0.9995   -0.8692   -0.1819 C   0  0  0  0  0  0  0  0  0  0  0  0
   -0.6102   -2.2499   -0.2657 C   0  0  0  0  0  0  0  0  0  0  0  0
   -1.3152   -3.2416   -0.4585 O   0  0  0  0  0  0  0  0  0  0  0  0
   -2.3041   -0.4251   -0.3136 C   0  0  0  0  0  0  0  0  0  0  0  0
   -3.3215   -1.2927   -0.5363 O   0  0  0  0  0  0  0  0  0  0  0  0
   -3.9538    2.4384   -0.8588 H   0  0  0  0  0  0  0  0  0  0  0  0
   -4.3604    1.6278    0.6661 H   0  0  0  0  0  0  0  0  0  0  0  0
   -4.5887    0.7283   -0.9006 H   0  0  0  0  0  0  0  0  0  0  0  0
    0.4511    2.1747    0.3139 H   0  0  0  0  0  0  0  0  0  0  0  0
    1.7217   -0.8130   -0.7541 H   0  0  0  0  0  0  0  0  0  0  0  0
    1.4751   -1.0800    0.9802 H   0  0  0  0  0  0  0  0  0  0  0  0
    3.9977    1.0655   -1.5400 H   0  0  0  0  0  0  0  0  0  0  0  0
    4.7932   -0.9723    2.0317 H   0  0  0  0  0  0  0  0  0  0  0  0
    0.4649   -2.4709   -0.1428 H   0  0  0  0  0  0  0  0  0  0  0  0
   -3.3512   -2.2623   -0.6360 H   0  0  0  0  0  0  0  0  0  0  0  0
  1  2  1  0
  2  3  2  0
  3  4  1  0
  4  5  2  0
  5  6  1  0
  6  7  1  0
  7  8  1  0
  8  9  2  0
  8 10  1  0
  8 11  1  0
  5 12  1  0
 12 13  1  0
 13 14  2  0
 12 15  2  0
 15 16  1  0
 15  2  1  0
  1 17  1  0
  1 18  1  0
  1 19  1  0
  4 20  1  0
  6 21  1  0
  6 22  1  0
 10 23  1  0
 11 24  1  0
 13 25  1  0
 16 26  1  0
M  END
$$$$

     RDKit          3D

 26 26  0  0  0  0  0  0  0  0999 V2000
    3.3524   -1.5968   -1.0763 C   0  0  0  0  0  0  0  0  0  0  0  0
    2.1185   -0.8246   -0.7529 C   0  0  0  0  0  0  0  0  0  0  0  0
    1.0596   -0.8604   -1.5413 N   0  0  0  0  0  0  0  0  0  0  0  0
   -0.0850   -0.1741   -1.2866 C   0  0  0  0  0  0  0  0  0  0  0  0
   -0.2314    0.6204   -0.1731 C   0  0  0  0  0  0  0  0  0  0  0  0
   -1.3959    1.4119    0.1958 C   0  0  0  0  0  0  0  0  0  0  0  0
   -2.4975    1.3185   -0.6250 O   0  0  0  0  0  0  0  0  0  0  0  0
   -3.1919   -0.1962   -0.6768 P   0  0  0  0  0  5  0  0  0  0  0  0
   -3.5701   -0.6585   -2.0512 O   0  0  0  0  0  0  0  0  0  0  0  0
   -4.6517   -0.1085    0.2361 O   0  0  0  0  0  0  0  0  0  0  0  0
   -2.2258   -1.3517    0.0887 O   0  0  0  0  0  0  0  0  0  0  0  0
    0.8882    0.6719    0.6792 C   0  0  0  0  0  0  0  0  0  0  0  0
    0.8254    1.4887    1.8648 C   0  0  0  0  0  0  0  0  0  0  0  0
    1.7192    1.6454    2.7129 O   0  0  0  0  0  0  0  0  0  0  0  0
    2.0414   -0.0330    0.4016 C   0  0  0  0  0  0  0  0  0  0  0  0
    3.1768   -0.0419    1.1740 O   0  0  0  0  0  0  0  0  0  0  0  0
    3.3150   -2.6273   -0.6545 H   0  0  0  0  0  0  0  0  0  0  0  0
    3.5251   -1.6587   -2.1716 H   0  0  0  0  0  0  0  0  0  0  0  0
    4.2369   -1.1043   -0.6457 H   0  0  0  0  0  0  0  0  0  0  0  0
   -0.9148   -0.2265   -1.9845 H   0  0  0  0  0  0  0  0  0  0  0  0
   -1.1482    2.5133    0.2597 H   0  0  0  0  0  0  0  0  0  0  0  0
   -1.6908    1.1667    1.2713 H   0  0  0  0  0  0  0  0  0  0  0  0
   -5.2981    0.4048   -0.3383 H   0  0  0  0  0  0  0  0  0  0  0  0
   -2.6637   -2.2289    0.1220 H   0  0  0  0  0  0  0  0  0  0  0  0
   -0.1033    2.0469    2.0669 H   0  0  0  0  0  0  0  0  0  0  0  0
    3.4097    0.4030    2.0143 H   0  0  0  0  0  0  0  0  0  0  0  0
  1  2  1  0
  2  3  2  0
  3  4  1  0
  4  5  2  0
  5  6  1  0
  6  7  1  0
  7  8  1  0
  8  9  2  0
  8 10  1  0
  8 11  1  0
  5 12  1  0
 12 13  1  0
 13 14  2  0
 12 15  2  0
 15 16  1  0
 15  2  1  0
  1 17  1  0
  1 18  1  0
  1 19  1  0
  4 20  1  0
  6 21  1  0
  6 22  1  0
 10 23  1  0
 11 24  1  0
 13 25  1  0
 16 26  1  0
M  END
$$$$

     RDKit          3D

 26 26  0  0  0  0  0  0  0  0999 V2000
    4.0319    1.2595    0.0944 C   0  0  0  0  0  0  0  0  0  0  0  0
    2.6551    0.8221    0.1709 C   0  0  0  0  0  0  0  0  0  0  0  0
    1.6703    1.6143    0.4318 N   0  0  0  0  0  0  0  0  0  0  0  0
    0.3555    1.4248    0.4978 C   0  0  0  0  0  0  0  0  0  0  0  0
   -0.0896    0.0668    0.1991 C   0  0  0  0  0  0  0  0  0  0  0  0
   -1.4843   -0.1519   -0.0251 C   0  0  0  0  0  0  0  0  0  0  0  0
   -2.3917   -0.2778    1.0256 O   0  0  0  0  0  0  0  0  0  0  0  0
   -3.9425   -0.5129    0.4027 P   0  0  0  0  0  5  0  0  0  0  0  0
   -4.3479   -1.9403    0.4475 O   0  0  0  0  0  0  0  0  0  0  0  0
   -4.0181   -0.0894   -1.2738 O   0  0  0  0  0  0  0  0  0  0  0  0
   -5.0419    0.5397    1.1440 O   0  0  0  0  0  0  0  0  0  0  0  0
    0.9132   -0.8328   -0.0897 C   0  0  0  0  0  0  0  0  0  0  0  0
    0.4343   -2.2080   -0.2585 C   0  0  0  0  0  0  0  0  0  0  0  0
    1.2453   -3.1044   -0.4241 O   0  0  0  0  0  0  0  0  0  0  0  0
    2.2432   -0.5359   -0.1138 C   0  0  0  0  0  0  0  0  0  0  0  0
    3.1737   -1.4558   -0.4084 O   0  0  0  0  0  0  0  0  0  0  0  0
    4.7437    0.5020   -0.1817 H   0  0  0  0  0  0  0  0  0  0  0  0
    4.0626    2.0357   -0.7481 H   0  0  0  0  0  0  0  0  0  0  0  0
    4.3267    1.8425    1.0232 H   0  0  0  0  0  0  0  0  0  0  0  0
   -0.3333    2.1616    0.7237 H   0  0  0  0  0  0  0  0  0  0  0  0
   -1.7895   -0.6796   -0.9849 H   0  0  0  0  0  0  0  0  0  0  0  0
   -1.8419    1.0157   -0.3741 H   0  0  0  0  0  0  0  0  0  0  0  0
   -3.5656    0.7948   -1.4265 H   0  0  0  0  0  0  0  0  0  0  0  0
   -4.5577    1.4539    1.0661 H   0  0  0  0  0  0  0  0  0  0  0  0
   -0.6151   -2.4051   -0.2342 H   0  0  0  0  0  0  0  0  0  0  0  0
    4.1638   -1.3394   -0.4743 H   0  0  0  0  0  0  0  0  0  0  0  0
  1  2  1  0
  2  3  2  0
  3  4  1  0
  4  5  2  0
  5  6  1  0
  6  7  1  0
  7  8  1  0
  8  9  2  0
  8 10  1  0
  8 11  1  0
  5 12  1  0
 12 13  1  0
 13 14  2  0
 12 15  2  0
 15 16  1  0
 15  2  1  0
  1 17  1  0
  1 18  1  0
  1 19  1  0
  4 20  1  0
  6 21  1  0
  6 22  1  0
 10 23  1  0
 11 24  1  0
 13 25  1  0
 16 26  1  0
M  END
$$$$

     RDKit          3D

 26 26  0  0  0  0  0  0  0  0999 V2000
    3.7061    1.9100   -1.0716 C   0  0  0  0  0  0  0  0  0  0  0  0
    2.3791    1.2821   -0.8613 C   0  0  0  0  0  0  0  0  0  0  0  0
    1.2299    1.8325   -1.2835 N   0  0  0  0  0  0  0  0  0  0  0  0
    0.0323    1.2205   -1.0686 C   0  0  0  0  0  0  0  0  0  0  0  0
   -0.0554    0.0117   -0.4101 C   0  0  0  0  0  0  0  0  0  0  0  0
   -1.3823   -0.6614   -0.1748 C   0  0  0  0  0  0  0  0  0  0  0  0
   -2.4055    0.1083   -0.7051 O   0  0  0  0  0  0  0  0  0  0  0  0
   -3.8640   -0.6818   -0.4187 P   0  0  0  0  0  5  0  0  0  0  0  0
   -3.7264   -2.1104   -0.8713 O   0  0  0  0  0  0  0  0  0  0  0  0
   -4.2581   -0.6002    1.2324 O   0  0  0  0  0  0  0  0  0  0  0  0
   -5.0706    0.1349   -1.2793 O   0  0  0  0  0  0  0  0  0  0  0  0
    1.1130   -0.5716    0.0322 C   0  0  0  0  0  0  0  0  0  0  0  0
    1.0696   -1.8417    0.7292 C   0  0  0  0  0  0  0  0  0  0  0  0
    2.1520   -2.3379    1.1145 O   0  0  0  0  0  0  0  0  0  0  0  0
    2.3137    0.0756   -0.2018 C   0  0  0  0  0  0  0  0  0  0  0  0
    3.4821   -0.5144    0.2442 O   0  0  0  0  0  0  0  0  0  0  0  0
    3.6371    2.9161   -1.5007 H   0  0  0  0  0  0  0  0  0  0  0  0
    4.2216    1.9732   -0.0842 H   0  0  0  0  0  0  0  0  0  0  0  0
    4.3031    1.2029   -1.7175 H   0  0  0  0  0  0  0  0  0  0  0  0
   -0.8813    1.6901   -1.4219 H   0  0  0  0  0  0  0  0  0  0  0  0
   -1.3608   -1.6920   -0.5294 H   0  0  0  0  0  0  0  0  0  0  0  0
   -1.5281   -0.6377    0.9432 H   0  0  0  0  0  0  0  0  0  0  0  0
   -4.8095   -1.3938    1.4708 H   0  0  0  0  0  0  0  0  0  0  0  0
   -4.8183    1.0923   -1.3030 H   0  0  0  0  0  0  0  0  0  0  0  0
    0.1551   -2.3522    0.9171 H   0  0  0  0  0  0  0  0  0  0  0  0
    4.3658   -0.0548    0.0813 H   0  0  0  0  0  0  0  0  0  0  0  0
  1  2  1  0
  2  3  2  0
  3  4  1  0
  4  5  2  0
  5  6  1  0
  6  7  1  0
  7  8  1  0
  8  9  2  0
  8 10  1  0
  8 11  1  0
  5 12  1  0
 12 13  1  0
 13 14  2  0
 12 15  2  0
 15 16  1  0
 15  2  1  0
  1 17  1  0
  1 18  1  0
  1 19  1  0
  4 20  1  0
  6 21  1  0
  6 22  1  0
 10 23  1  0
 11 24  1  0
 13 25  1  0
 16 26  1  0
M  END
$$$$

     RDKit          3D

 26 26  0  0  0  0  0  0  0  0999 V2000
    4.0467    0.6442    0.9047 C   0  0  0  0  0  0  0  0  0  0  0  0
    2.5798    0.3780    0.7653 C   0  0  0  0  0  0  0  0  0  0  0  0
    1.9077    0.0821    1.7857 N   0  0  0  0  0  0  0  0  0  0  0  0
    0.5627   -0.2513    1.6693 C   0  0  0  0  0  0  0  0  0  0  0  0
    0.0571   -0.2513    0.3856 C   0  0  0  0  0  0  0  0  0  0  0  0
   -1.3486   -0.8354    0.0950 C   0  0  0  0  0  0  0  0  0  0  0  0
   -2.2079   -0.1270    0.7960 O   0  0  0  0  0  0  0  0  0  0  0  0
   -3.8150   -0.3263    0.7954 P   0  0  0  0  0  5  0  0  0  0  0  0
   -4.2397   -1.3507    1.8775 O   0  0  0  0  0  0  0  0  0  0  0  0
   -4.4951   -0.7203   -0.7011 O   0  0  0  0  0  0  0  0  0  0  0  0
   -4.4737    1.2402    1.2002 O   0  0  0  0  0  0  0  0  0  0  0  0
    0.7636    0.0832   -0.7744 C   0  0  0  0  0  0  0  0  0  0  0  0
    0.1689    0.1444   -2.0364 C   0  0  0  0  0  0  0  0  0  0  0  0
    0.9186    0.6250   -3.0254 O   0  0  0  0  0  0  0  0  0  0  0  0
    2.0904    0.4226   -0.5388 C   0  0  0  0  0  0  0  0  0  0  0  0
    2.8397    0.8326   -1.5912 O   0  0  0  0  0  0  0  0  0  0  0  0
    4.6239    0.6648   -0.0003 H   0  0  0  0  0  0  0  0  0  0  0  0
    4.1423    1.4245    1.6565 H   0  0  0  0  0  0  0  0  0  0  0  0
    4.4235   -0.3321    1.3903 H   0  0  0  0  0  0  0  0  0  0  0  0
   -0.0460   -0.5223    2.5004 H   0  0  0  0  0  0  0  0  0  0  0  0
   -1.4131   -1.2171   -0.8723 H   0  0  0  0  0  0  0  0  0  0  0  0
   -1.2513   -1.8809    0.7732 H   0  0  0  0  0  0  0  0  0  0  0  0
   -4.8239   -1.6542   -0.6176 H   0  0  0  0  0  0  0  0  0  0  0  0
   -3.9922    1.8669    0.5599 H   0  0  0  0  0  0  0  0  0  0  0  0
   -0.7927   -0.0997   -2.3866 H   0  0  0  0  0  0  0  0  0  0  0  0
    3.7744    1.1605   -1.5700 H   0  0  0  0  0  0  0  0  0  0  0  0
  1  2  1  0
  2  3  2  0
  3  4  1  0
  4  5  2  0
  5  6  1  0
  6  7  1  0
  7  8  1  0
  8  9  2  0
  8 10  1  0
  8 11  1  0
  5 12  1  0
 12 13  1  0
 13 14  2  0
 12 15  2  0
 15 16  1  0
 15  2  1  0
  1 17  1  0
  1 18  1  0
  1 19  1  0
  4 20  1  0
  6 21  1  0
  6 22  1  0
 10 23  1  0
 11 24  1  0
 13 25  1  0
 16 26  1  0
M  END
$$$$

     RDKit          3D

 26 26  0  0  0  0  0  0  0  0999 V2000
   -3.9474    0.3035    1.2334 C   0  0  0  0  0  0  0  0  0  0  0  0
   -2.5299    0.2082    0.7627 C   0  0  0  0  0  0  0  0  0  0  0  0
   -1.5986    1.0257    1.2903 N   0  0  0  0  0  0  0  0  0  0  0  0
   -0.3133    0.9847    0.9066 C   0  0  0  0  0  0  0  0  0  0  0  0
    0.0282    0.0590   -0.0651 C   0  0  0  0  0  0  0  0  0  0  0  0
    1.4400    0.0006   -0.5092 C   0  0  0  0  0  0  0  0  0  0  0  0
    2.2098    0.9370    0.1864 O   0  0  0  0  0  0  0  0  0  0  0  0
    3.8115    0.9294   -0.2604 P   0  0  0  0  0  5  0  0  0  0  0  0
    4.0245    0.5481   -1.7053 O   0  0  0  0  0  0  0  0  0  0  0  0
    4.6558   -0.1507    0.7657 O   0  0  0  0  0  0  0  0  0  0  0  0
    4.5512    2.4386   -0.0294 O   0  0  0  0  0  0  0  0  0  0  0  0
   -0.9215   -0.7983   -0.6253 C   0  0  0  0  0  0  0  0  0  0  0  0
   -0.5610   -1.7672   -1.6376 C   0  0  0  0  0  0  0  0  0  0  0  0
    0.6097   -1.9175   -2.0920 O   0  0  0  0  0  0  0  0  0  0  0  0
   -2.2356   -0.7267   -0.2049 C   0  0  0  0  0  0  0  0  0  0  0  0
   -3.1755   -1.5813   -0.7655 O   0  0  0  0  0  0  0  0  0  0  0  0
   -4.0019    0.9093    2.1506 H   0  0  0  0  0  0  0  0  0  0  0  0
   -4.5630    0.7904    0.4492 H   0  0  0  0  0  0  0  0  0  0  0  0
   -4.3100   -0.7124    1.5014 H   0  0  0  0  0  0  0  0  0  0  0  0
    0.4548    1.6198    1.3044 H   0  0  0  0  0  0  0  0  0  0  0  0
    1.8766   -0.9894   -0.2763 H   0  0  0  0  0  0  0  0  0  0  0  0
    1.5088    0.1573   -1.6083 H   0  0  0  0  0  0  0  0  0  0  0  0
    4.1687   -1.0059    0.8466 H   0  0  0  0  0  0  0  0  0  0  0  0
    4.2977    2.7119    0.9104 H   0  0  0  0  0  0  0  0  0  0  0  0
   -1.3328   -2.4129   -2.0424 H   0  0  0  0  0  0  0  0  0  0  0  0
   -4.1467   -1.5613   -0.4860 H   0  0  0  0  0  0  0  0  0  0  0  0
  1  2  1  0
  2  3  2  0
  3  4  1  0
  4  5  2  0
  5  6  1  0
  6  7  1  0
  7  8  1  0
  8  9  2  0
  8 10  1  0
  8 11  1  0
  5 12  1  0
 12 13  1  0
 13 14  2  0
 12 15  2  0
 15 16  1  0
 15  2  1  0
  1 17  1  0
  1 18  1  0
  1 19  1  0
  4 20  1  0
  6 21  1  0
  6 22  1  0
 10 23  1  0
 11 24  1  0
 13 25  1  0
 16 26  1  0
M  END
$$$$

     RDKit          3D

 26 26  0  0  0  0  0  0  0  0999 V2000
   -4.0779   -0.6651   -0.8317 C   0  0  0  0  0  0  0  0  0  0  0  0
   -2.6164   -0.5351   -0.5961 C   0  0  0  0  0  0  0  0  0  0  0  0
   -1.7082   -1.3642   -1.1060 N   0  0  0  0  0  0  0  0  0  0  0  0
   -0.4049   -1.2090   -0.8675 C   0  0  0  0  0  0  0  0  0  0  0  0
    0.0392   -0.1956   -0.0934 C   0  0  0  0  0  0  0  0  0  0  0  0
    1.4971    0.0209    0.2043 C   0  0  0  0  0  0  0  0  0  0  0  0
    2.1849   -0.9762   -0.4483 O   0  0  0  0  0  0  0  0  0  0  0  0
    3.8428   -0.9050   -0.2359 P   0  0  0  0  0  5  0  0  0  0  0  0
    4.3279   -2.3018    0.0988 O   0  0  0  0  0  0  0  0  0  0  0  0
    4.5391   -0.3373   -1.6583 O   0  0  0  0  0  0  0  0  0  0  0  0
    4.2069    0.1816    1.0063 O   0  0  0  0  0  0  0  0  0  0  0  0
   -0.8531    0.7098    0.4730 C   0  0  0  0  0  0  0  0  0  0  0  0
   -0.3329    1.7975    1.3082 C   0  0  0  0  0  0  0  0  0  0  0  0
   -1.0858    2.6189    1.8276 O   0  0  0  0  0  0  0  0  0  0  0  0
   -2.1918    0.5378    0.2190 C   0  0  0  0  0  0  0  0  0  0  0  0
   -3.1569    1.3679    0.7242 O   0  0  0  0  0  0  0  0  0  0  0  0
   -4.3038   -0.0541   -1.7402 H   0  0  0  0  0  0  0  0  0  0  0  0
   -4.2793   -1.7414   -0.9900 H   0  0  0  0  0  0  0  0  0  0  0  0
   -4.6180   -0.2585    0.0570 H   0  0  0  0  0  0  0  0  0  0  0  0
    0.3318   -1.9094   -1.3012 H   0  0  0  0  0  0  0  0  0  0  0  0
    1.6775    0.0678    1.2886 H   0  0  0  0  0  0  0  0  0  0  0  0
    1.7506    0.9941   -0.2603 H   0  0  0  0  0  0  0  0  0  0  0  0
    3.8773    0.2472   -2.1103 H   0  0  0  0  0  0  0  0  0  0  0  0
    3.7491   -0.1317    1.8201 H   0  0  0  0  0  0  0  0  0  0  0  0
    0.7268    1.8866    1.4753 H   0  0  0  0  0  0  0  0  0  0  0  0
   -3.1220    2.1542    1.2947 H   0  0  0  0  0  0  0  0  0  0  0  0
  1  2  1  0
  2  3  2  0
  3  4  1  0
  4  5  2  0
  5  6  1  0
  6  7  1  0
  7  8  1  0
  8  9  2  0
  8 10  1  0
  8 11  1  0
  5 12  1  0
 12 13  1  0
 13 14  2  0
 12 15  2  0
 15 16  1  0
 15  2  1  0
  1 17  1  0
  1 18  1  0
  1 19  1  0
  4 20  1  0
  6 21  1  0
  6 22  1  0
 10 23  1  0
 11 24  1  0
 13 25  1  0
 16 26  1  0
M  END
$$$$

     RDKit          3D

 26 26  0  0  0  0  0  0  0  0999 V2000
   -4.0624    1.2191    0.3546 C   0  0  0  0  0  0  0  0  0  0  0  0
   -2.6227    0.8280    0.2313 C   0  0  0  0  0  0  0  0  0  0  0  0
   -1.6503    1.7403    0.2073 N   0  0  0  0  0  0  0  0  0  0  0  0
   -0.3571    1.3941    0.0968 C   0  0  0  0  0  0  0  0  0  0  0  0
    0.0235    0.0930    0.0039 C   0  0  0  0  0  0  0  0  0  0  0  0
    1.4553   -0.2816   -0.1180 C   0  0  0  0  0  0  0  0  0  0  0  0
    2.2553    0.8349   -0.1193 O   0  0  0  0  0  0  0  0  0  0  0  0
    3.8586    0.3569   -0.2588 P   0  0  0  0  0  5  0  0  0  0  0  0
    3.9945   -1.1481   -0.3698 O   0  0  0  0  0  0  0  0  0  0  0  0
    4.7955    0.8466    1.0589 O   0  0  0  0  0  0  0  0  0  0  0  0
    4.5408    1.0645   -1.6523 O   0  0  0  0  0  0  0  0  0  0  0  0
   -0.9353   -0.9260    0.0215 C   0  0  0  0  0  0  0  0  0  0  0  0
   -0.5000   -2.3060   -0.0794 C   0  0  0  0  0  0  0  0  0  0  0  0
   -1.2696   -3.2639   -0.0723 O   0  0  0  0  0  0  0  0  0  0  0  0
   -2.2495   -0.5233    0.1363 C   0  0  0  0  0  0  0  0  0  0  0  0
   -3.2959   -1.4069    0.1670 O   0  0  0  0  0  0  0  0  0  0  0  0
   -4.1168    2.3082    0.1698 H   0  0  0  0  0  0  0  0  0  0  0  0
   -4.7119    0.6232   -0.3180 H   0  0  0  0  0  0  0  0  0  0  0  0
   -4.4327    1.0506    1.3921 H   0  0  0  0  0  0  0  0  0  0  0  0
    0.4205    2.1597    0.0795 H   0  0  0  0  0  0  0  0  0  0  0  0
    1.7213   -0.9089    0.7683 H   0  0  0  0  0  0  0  0  0  0  0  0
    1.6273   -0.8876   -1.0277 H   0  0  0  0  0  0  0  0  0  0  0  0
    4.2390    1.1756    1.8026 H   0  0  0  0  0  0  0  0  0  0  0  0
    3.9590    0.8471   -2.4229 H   0  0  0  0  0  0  0  0  0  0  0  0
    0.5551   -2.5085   -0.1655 H   0  0  0  0  0  0  0  0  0  0  0  0
   -3.2415   -2.3807    0.1141 H   0  0  0  0  0  0  0  0  0  0  0  0
  1  2  1  0
  2  3  2  0
  3  4  1  0
  4  5  2  0
  5  6  1  0
  6  7  1  0
  7  8  1  0
  8  9  2  0
  8 10  1  0
  8 11  1  0
  5 12  1  0
 12 13  1  0
 13 14  2  0
 12 15  2  0
 15 16  1  0
 15  2  1  0
  1 17  1  0
  1 18  1  0
  1 19  1  0
  4 20  1  0
  6 21  1  0
  6 22  1  0
 10 23  1  0
 11 24  1  0
 13 25  1  0
 16 26  1  0
M  END
$$$$

     RDKit          3D

 26 26  0  0  0  0  0  0  0  0999 V2000
   -3.9725    1.1249   -0.9663 C   0  0  0  0  0  0  0  0  0  0  0  0
   -2.5726    0.7451   -0.6811 C   0  0  0  0  0  0  0  0  0  0  0  0
   -1.5774    1.4581   -1.1943 N   0  0  0  0  0  0  0  0  0  0  0  0
   -0.3044    1.1139   -0.9360 C   0  0  0  0  0  0  0  0  0  0  0  0
    0.0394    0.0339   -0.1476 C   0  0  0  0  0  0  0  0  0  0  0  0
    1.4552   -0.2877    0.0827 C   0  0  0  0  0  0  0  0  0  0  0  0
    2.2489    0.6495   -0.5783 O   0  0  0  0  0  0  0  0  0  0  0  0
    3.8859    0.3668   -0.3750 P   0  0  0  0  0  5  0  0  0  0  0  0
    4.5601    0.4407   -1.7262 O   0  0  0  0  0  0  0  0  0  0  0  0
    4.6270    1.5298    0.6117 O   0  0  0  0  0  0  0  0  0  0  0  0
    4.1902   -1.1704    0.2990 O   0  0  0  0  0  0  0  0  0  0  0  0
   -1.0262   -0.7022    0.3823 C   0  0  0  0  0  0  0  0  0  0  0  0
   -0.6966   -1.8346    1.2163 C   0  0  0  0  0  0  0  0  0  0  0  0
    0.4744   -2.2039    1.4952 O   0  0  0  0  0  0  0  0  0  0  0  0
   -2.3302   -0.3588    0.1243 C   0  0  0  0  0  0  0  0  0  0  0  0
   -3.3986   -1.0672    0.6335 O   0  0  0  0  0  0  0  0  0  0  0  0
   -4.6857    0.3837   -0.5546 H   0  0  0  0  0  0  0  0  0  0  0  0
   -4.0784    1.2369   -2.0752 H   0  0  0  0  0  0  0  0  0  0  0  0
   -4.1438    2.1292   -0.5299 H   0  0  0  0  0  0  0  0  0  0  0  0
    0.5173    1.7014   -1.3588 H   0  0  0  0  0  0  0  0  0  0  0  0
    1.6943   -1.3229   -0.2439 H   0  0  0  0  0  0  0  0  0  0  0  0
    1.6751   -0.2085    1.1638 H   0  0  0  0  0  0  0  0  0  0  0  0
    4.4300    2.4382    0.3398 H   0  0  0  0  0  0  0  0  0  0  0  0
    3.8060   -1.8851   -0.2488 H   0  0  0  0  0  0  0  0  0  0  0  0
   -1.4793   -2.4360    1.6529 H   0  0  0  0  0  0  0  0  0  0  0  0
   -3.3380   -1.8747    1.2218 H   0  0  0  0  0  0  0  0  0  0  0  0
  1  2  1  0
  2  3  2  0
  3  4  1  0
  4  5  2  0
  5  6  1  0
  6  7  1  0
  7  8  1  0
  8  9  2  0
  8 10  1  0
  8 11  1  0
  5 12  1  0
 12 13  1  0
 13 14  2  0
 12 15  2  0
 15 16  1  0
 15  2  1  0
  1 17  1  0
  1 18  1  0
  1 19  1  0
  4 20  1  0
  6 21  1  0
  6 22  1  0
 10 23  1  0
 11 24  1  0
 13 25  1  0
 16 26  1  0
M  END
$$$$

     RDKit          3D

 26 26  0  0  0  0  0  0  0  0999 V2000
   -3.0173    2.2503    0.4026 C   0  0  0  0  0  0  0  0  0  0  0  0
   -1.8767    1.2805    0.3836 C   0  0  0  0  0  0  0  0  0  0  0  0
   -0.6697    1.5825    0.8610 N   0  0  0  0  0  0  0  0  0  0  0  0
    0.3578    0.7029    0.8412 C   0  0  0  0  0  0  0  0  0  0  0  0
    0.2141   -0.5640    0.3212 C   0  0  0  0  0  0  0  0  0  0  0  0
    1.2932   -1.5723    0.2970 C   0  0  0  0  0  0  0  0  0  0  0  0
    2.4958   -1.1205    0.7497 O   0  0  0  0  0  0  0  0  0  0  0  0
    3.2525    0.0540   -0.1536 P   0  0  0  0  0  5  0  0  0  0  0  0
    4.3566   -0.5600   -1.0362 O   0  0  0  0  0  0  0  0  0  0  0  0
    2.1577    0.7332   -1.2504 O   0  0  0  0  0  0  0  0  0  0  0  0
    3.9374    1.2291    0.8561 O   0  0  0  0  0  0  0  0  0  0  0  0
   -1.0370   -0.9394   -0.1951 C   0  0  0  0  0  0  0  0  0  0  0  0
   -1.2847   -2.2503   -0.7465 C   0  0  0  0  0  0  0  0  0  0  0  0
   -0.4001   -3.1155   -0.7987 O   0  0  0  0  0  0  0  0  0  0  0  0
   -2.0396    0.0092   -0.1416 C   0  0  0  0  0  0  0  0  0  0  0  0
   -3.2883   -0.2920   -0.6304 O   0  0  0  0  0  0  0  0  0  0  0  0
   -2.7063    3.1489    0.9426 H   0  0  0  0  0  0  0  0  0  0  0  0
   -3.4131    2.4423   -0.6159 H   0  0  0  0  0  0  0  0  0  0  0  0
   -3.8268    1.7501    0.9956 H   0  0  0  0  0  0  0  0  0  0  0  0
    1.3101    0.9873    1.2725 H   0  0  0  0  0  0  0  0  0  0  0  0
    1.4680   -1.9237   -0.7633 H   0  0  0  0  0  0  0  0  0  0  0  0
    1.0140   -2.4790    0.9096 H   0  0  0  0  0  0  0  0  0  0  0  0
    2.7003    1.2623   -1.9012 H   0  0  0  0  0  0  0  0  0  0  0  0
    4.8872    1.0103    1.0755 H   0  0  0  0  0  0  0  0  0  0  0  0
   -2.2520   -2.5154   -1.1307 H   0  0  0  0  0  0  0  0  0  0  0  0
   -3.6332   -1.1111   -1.0413 H   0  0  0  0  0  0  0  0  0  0  0  0
  1  2  1  0
  2  3  2  0
  3  4  1  0
  4  5  2  0
  5  6  1  0
  6  7  1  0
  7  8  1  0
  8  9  2  0
  8 10  1  0
  8 11  1  0
  5 12  1  0
 12 13  1  0
 13 14  2  0
 12 15  2  0
 15 16  1  0
 15  2  1  0
  1 17  1  0
  1 18  1  0
  1 19  1  0
  4 20  1  0
  6 21  1  0
  6 22  1  0
 10 23  1  0
 11 24  1  0
 13 25  1  0
 16 26  1  0
M  END
$$$$

     RDKit          3D

 26 26  0  0  0  0  0  0  0  0999 V2000
   -2.9746    2.1630    0.8409 C   0  0  0  0  0  0  0  0  0  0  0  0
   -1.8678    1.3518    0.2002 C   0  0  0  0  0  0  0  0  0  0  0  0
   -0.9088    1.9097   -0.5394 N   0  0  0  0  0  0  0  0  0  0  0  0
    0.0823    1.1311   -1.0593 C   0  0  0  0  0  0  0  0  0  0  0  0
    0.0583   -0.2084   -0.8352 C   0  0  0  0  0  0  0  0  0  0  0  0
    1.0830   -1.1821   -1.3916 C   0  0  0  0  0  0  0  0  0  0  0  0
    2.1636   -1.3978   -0.6351 O   0  0  0  0  0  0  0  0  0  0  0  0
    3.2727   -0.4530   -0.0499 P   0  0  0  0  0  5  0  0  0  0  0  0
    4.7254   -0.8536   -0.4539 O   0  0  0  0  0  0  0  0  0  0  0  0
    3.3103   -0.5133    1.6898 O   0  0  0  0  0  0  0  0  0  0  0  0
    3.1187    1.1755   -0.4369 O   0  0  0  0  0  0  0  0  0  0  0  0
   -0.9237   -0.8680   -0.0985 C   0  0  0  0  0  0  0  0  0  0  0  0
   -0.9592   -2.3068   -0.0043 C   0  0  0  0  0  0  0  0  0  0  0  0
   -1.8647   -2.9842    0.5343 O   0  0  0  0  0  0  0  0  0  0  0  0
   -1.9138   -0.0285    0.4335 C   0  0  0  0  0  0  0  0  0  0  0  0
   -2.9122   -0.5600    1.1776 O   0  0  0  0  0  0  0  0  0  0  0  0
   -3.9786    1.8202    0.6152 H   0  0  0  0  0  0  0  0  0  0  0  0
   -2.8067    3.2328    0.6130 H   0  0  0  0  0  0  0  0  0  0  0  0
   -2.8255    1.9916    1.9595 H   0  0  0  0  0  0  0  0  0  0  0  0
    0.8611    1.5715   -1.6891 H   0  0  0  0  0  0  0  0  0  0  0  0
    0.6632   -2.0007   -1.9729 H   0  0  0  0  0  0  0  0  0  0  0  0
    1.5204   -0.4678   -2.2689 H   0  0  0  0  0  0  0  0  0  0  0  0
    3.8443    0.2894    2.0288 H   0  0  0  0  0  0  0  0  0  0  0  0
    2.5128    1.5646    0.2751 H   0  0  0  0  0  0  0  0  0  0  0  0
   -0.1588   -2.9171   -0.4121 H   0  0  0  0  0  0  0  0  0  0  0  0
   -3.1218   -1.4600    1.4794 H   0  0  0  0  0  0  0  0  0  0  0  0
  1  2  1  0
  2  3  2  0
  3  4  1  0
  4  5  2  0
  5  6  1  0
  6  7  1  0
  7  8  1  0
  8  9  2  0
  8 10  1  0
  8 11  1  0
  5 12  1  0
 12 13  1  0
 13 14  2  0
 12 15  2  0
 15 16  1  0
 15  2  1  0
  1 17  1  0
  1 18  1  0
  1 19  1  0
  4 20  1  0
  6 21  1  0
  6 22  1  0
 10 23  1  0
 11 24  1  0
 13 25  1  0
 16 26  1  0
M  END
$$$$

     RDKit          3D

 26 26  0  0  0  0  0  0  0  0999 V2000
   -3.1843    1.7171    0.2131 C   0  0  0  0  0  0  0  0  0  0  0  0
   -1.9622    0.8722    0.2377 C   0  0  0  0  0  0  0  0  0  0  0  0
   -0.8991    1.2378    0.9670 N   0  0  0  0  0  0  0  0  0  0  0  0
    0.2335    0.4898    1.0115 C   0  0  0  0  0  0  0  0  0  0  0  0
    0.2933   -0.6692    0.2910 C   0  0  0  0  0  0  0  0  0  0  0  0
    1.4649   -1.5651    0.2778 C   0  0  0  0  0  0  0  0  0  0  0  0
    2.5302   -1.1010    0.9948 O   0  0  0  0  0  0  0  0  0  0  0  0
    3.2621    0.2867    0.4269 P   0  0  0  0  0  5  0  0  0  0  0  0
    4.6024   -0.1327   -0.2128 O   0  0  0  0  0  0  0  0  0  0  0  0
    2.3313    1.1125   -0.7223 O   0  0  0  0  0  0  0  0  0  0  0  0
    3.6911    1.3757    1.6467 O   0  0  0  0  0  0  0  0  0  0  0  0
   -0.7963   -1.0968   -0.4883 C   0  0  0  0  0  0  0  0  0  0  0  0
   -0.7694   -2.3383   -1.2538 C   0  0  0  0  0  0  0  0  0  0  0  0
    0.1653   -3.1426   -1.3287 O   0  0  0  0  0  0  0  0  0  0  0  0
   -1.9200   -0.2962   -0.4945 C   0  0  0  0  0  0  0  0  0  0  0  0
   -3.0135   -0.7066   -1.2658 O   0  0  0  0  0  0  0  0  0  0  0  0
   -2.8718    2.7691    0.4202 H   0  0  0  0  0  0  0  0  0  0  0  0
   -3.9488    1.3751    0.9558 H   0  0  0  0  0  0  0  0  0  0  0  0
   -3.6813    1.7361   -0.7696 H   0  0  0  0  0  0  0  0  0  0  0  0
    1.0641    0.7938    1.6314 H   0  0  0  0  0  0  0  0  0  0  0  0
    1.1565   -2.5383    0.6881 H   0  0  0  0  0  0  0  0  0  0  0  0
    1.7861   -1.7219   -0.7971 H   0  0  0  0  0  0  0  0  0  0  0  0
    2.2162    2.0705   -0.4765 H   0  0  0  0  0  0  0  0  0  0  0  0
    3.8074    2.2536    1.2127 H   0  0  0  0  0  0  0  0  0  0  0  0
   -1.6880   -2.5712   -1.8216 H   0  0  0  0  0  0  0  0  0  0  0  0
   -3.8697   -0.2098   -1.3437 H   0  0  0  0  0  0  0  0  0  0  0  0
  1  2  1  0
  2  3  2  0
  3  4  1  0
  4  5  2  0
  5  6  1  0
  6  7  1  0
  7  8  1  0
  8  9  2  0
  8 10  1  0
  8 11  1  0
  5 12  1  0
 12 13  1  0
 13 14  2  0
 12 15  2  0
 15 16  1  0
 15  2  1  0
  1 17  1  0
  1 18  1  0
  1 19  1  0
  4 20  1  0
  6 21  1  0
  6 22  1  0
 10 23  1  0
 11 24  1  0
 13 25  1  0
 16 26  1  0
M  END
$$$$

     RDKit          3D

 26 26  0  0  0  0  0  0  0  0999 V2000
   -4.0999    1.1246    0.7949 C   0  0  0  0  0  0  0  0  0  0  0  0
   -2.6752    0.7706    0.5336 C   0  0  0  0  0  0  0  0  0  0  0  0
   -1.6611    1.5148    0.9809 N   0  0  0  0  0  0  0  0  0  0  0  0
   -0.3736    1.2091    0.7538 C   0  0  0  0  0  0  0  0  0  0  0  0
   -0.0147    0.0923    0.0346 C   0  0  0  0  0  0  0  0  0  0  0  0
    1.3842   -0.2570   -0.2231 C   0  0  0  0  0  0  0  0  0  0  0  0
    2.2858    0.6438    0.3265 O   0  0  0  0  0  0  0  0  0  0  0  0
    3.8420    0.1024   -0.0574 P   0  0  0  0  0  5  0  0  0  0  0  0
    3.8031   -1.3715   -0.3078 O   0  0  0  0  0  0  0  0  0  0  0  0
    4.8681    0.5238    1.2164 O   0  0  0  0  0  0  0  0  0  0  0  0
    4.2912    0.8848   -1.4984 O   0  0  0  0  0  0  0  0  0  0  0  0
   -1.0427   -0.7233   -0.4576 C   0  0  0  0  0  0  0  0  0  0  0  0
   -0.6441   -1.8969   -1.2138 C   0  0  0  0  0  0  0  0  0  0  0  0
   -1.4188   -2.7328   -1.7254 O   0  0  0  0  0  0  0  0  0  0  0  0
   -2.3516   -0.3856   -0.2096 C   0  0  0  0  0  0  0  0  0  0  0  0
   -3.4132   -1.1103   -0.6432 O   0  0  0  0  0  0  0  0  0  0  0  0
   -4.7622    0.8076   -0.0386 H   0  0  0  0  0  0  0  0  0  0  0  0
   -4.4826    0.6427    1.7109 H   0  0  0  0  0  0  0  0  0  0  0  0
   -4.1909    2.2428    0.8389 H   0  0  0  0  0  0  0  0  0  0  0  0
    0.4358    1.8417    1.1352 H   0  0  0  0  0  0  0  0  0  0  0  0
    1.6420   -0.3719   -1.2860 H   0  0  0  0  0  0  0  0  0  0  0  0
    1.6018   -1.2473    0.2686 H   0  0  0  0  0  0  0  0  0  0  0  0
    5.6187   -0.1223    1.2299 H   0  0  0  0  0  0  0  0  0  0  0  0
    4.3114    1.8689   -1.2738 H   0  0  0  0  0  0  0  0  0  0  0  0
    0.4173   -2.1146   -1.3793 H   0  0  0  0  0  0  0  0  0  0  0  0
   -3.3706   -1.9364   -1.1695 H   0  0  0  0  0  0  0  0  0  0  0  0
  1  2  1  0
  2  3  2  0
  3  4  1  0
  4  5  2  0
  5  6  1  0
  6  7  1  0
  7  8  1  0
  8  9  2  0
  8 10  1  0
  8 11  1  0
  5 12  1  0
 12 13  1  0
 13 14  2  0
 12 15  2  0
 15 16  1  0
 15  2  1  0
  1 17  1  0
  1 18  1  0
  1 19  1  0
  4 20  1  0
  6 21  1  0
  6 22  1  0
 10 23  1  0
 11 24  1  0
 13 25  1  0
 16 26  1  0
M  END
$$$$

     RDKit          3D

 26 26  0  0  0  0  0  0  0  0999 V2000
    3.7542    1.6859   -0.0146 C   0  0  0  0  0  0  0  0  0  0  0  0
    2.4270    1.0263   -0.0531 C   0  0  0  0  0  0  0  0  0  0  0  0
    1.3362    1.8107   -0.0711 N   0  0  0  0  0  0  0  0  0  0  0  0
    0.1107    1.2698   -0.1059 C   0  0  0  0  0  0  0  0  0  0  0  0
   -0.0268   -0.0949   -0.1232 C   0  0  0  0  0  0  0  0  0  0  0  0
   -1.3933   -0.6769   -0.1618 C   0  0  0  0  0  0  0  0  0  0  0  0
   -2.3131    0.3378   -0.1733 O   0  0  0  0  0  0  0  0  0  0  0  0
   -3.9027   -0.1744   -0.2165 P   0  0  0  0  0  5  0  0  0  0  0  0
   -4.0152   -1.6279    0.2446 O   0  0  0  0  0  0  0  0  0  0  0  0
   -4.4003   -0.1212   -1.8544 O   0  0  0  0  0  0  0  0  0  0  0  0
   -4.9461    0.8144    0.6437 O   0  0  0  0  0  0  0  0  0  0  0  0
    1.0910   -0.9326   -0.1051 C   0  0  0  0  0  0  0  0  0  0  0  0
    0.9111   -2.3741   -0.1243 C   0  0  0  0  0  0  0  0  0  0  0  0
    1.9048   -3.1204   -0.1082 O   0  0  0  0  0  0  0  0  0  0  0  0
    2.3303   -0.3427   -0.0695 C   0  0  0  0  0  0  0  0  0  0  0  0
    3.4366   -1.1736   -0.0516 O   0  0  0  0  0  0  0  0  0  0  0  0
    4.5177    1.1054    0.5211 H   0  0  0  0  0  0  0  0  0  0  0  0
    3.6465    2.7227    0.4162 H   0  0  0  0  0  0  0  0  0  0  0  0
    4.0327    1.8726   -1.0916 H   0  0  0  0  0  0  0  0  0  0  0  0
   -0.7533    1.9485   -0.1195 H   0  0  0  0  0  0  0  0  0  0  0  0
   -1.4785   -1.3326    0.7350 H   0  0  0  0  0  0  0  0  0  0  0  0
   -1.5336   -1.3242   -1.0750 H   0  0  0  0  0  0  0  0  0  0  0  0
   -4.5695    0.8136   -2.1370 H   0  0  0  0  0  0  0  0  0  0  0  0
   -4.4967    1.5714    1.0923 H   0  0  0  0  0  0  0  0  0  0  0  0
   -0.0638   -2.8279   -0.1522 H   0  0  0  0  0  0  0  0  0  0  0  0
    4.3943   -0.8560   -0.0255 H   0  0  0  0  0  0  0  0  0  0  0  0
  1  2  1  0
  2  3  2  0
  3  4  1  0
  4  5  2  0
  5  6  1  0
  6  7  1  0
  7  8  1  0
  8  9  2  0
  8 10  1  0
  8 11  1  0
  5 12  1  0
 12 13  1  0
 13 14  2  0
 12 15  2  0
 15 16  1  0
 15  2  1  0
  1 17  1  0
  1 18  1  0
  1 19  1  0
  4 20  1  0
  6 21  1  0
  6 22  1  0
 10 23  1  0
 11 24  1  0
 13 25  1  0
 16 26  1  0
M  END
$$$$

     RDKit          3D

 26 26  0  0  0  0  0  0  0  0999 V2000
    3.7358    1.8637    0.2188 C   0  0  0  0  0  0  0  0  0  0  0  0
    2.4124    1.1850    0.0582 C   0  0  0  0  0  0  0  0  0  0  0  0
    1.2776    1.8849    0.2270 N   0  0  0  0  0  0  0  0  0  0  0  0
    0.0613    1.2953    0.0876 C   0  0  0  0  0  0  0  0  0  0  0  0
   -0.0543   -0.0270   -0.2284 C   0  0  0  0  0  0  0  0  0  0  0  0
   -1.3858   -0.6319   -0.3713 C   0  0  0  0  0  0  0  0  0  0  0  0
   -2.3507    0.3449   -0.1365 O   0  0  0  0  0  0  0  0  0  0  0  0
   -3.8731   -0.3163   -0.2926 P   0  0  0  0  0  5  0  0  0  0  0  0
   -4.0724   -0.8705   -1.6781 O   0  0  0  0  0  0  0  0  0  0  0  0
   -5.0200    0.9044   -0.0674 O   0  0  0  0  0  0  0  0  0  0  0  0
   -4.0563   -1.5470    0.8518 O   0  0  0  0  0  0  0  0  0  0  0  0
    1.0748   -0.7734   -0.4084 C   0  0  0  0  0  0  0  0  0  0  0  0
    1.0126   -2.1914   -0.7474 C   0  0  0  0  0  0  0  0  0  0  0  0
    2.0630   -2.8614   -0.9091 O   0  0  0  0  0  0  0  0  0  0  0  0
    2.3087   -0.1333   -0.2569 C   0  0  0  0  0  0  0  0  0  0  0  0
    3.4688   -0.8784   -0.4366 O   0  0  0  0  0  0  0  0  0  0  0  0
    3.6062    2.8289    0.7430 H   0  0  0  0  0  0  0  0  0  0  0  0
    4.3631    1.2290    0.8941 H   0  0  0  0  0  0  0  0  0  0  0  0
    4.1759    1.9688   -0.7851 H   0  0  0  0  0  0  0  0  0  0  0  0
   -0.8074    1.9529    0.2460 H   0  0  0  0  0  0  0  0  0  0  0  0
   -1.5695   -1.0312   -1.3952 H   0  0  0  0  0  0  0  0  0  0  0  0
   -1.5125   -1.4929    0.3467 H   0  0  0  0  0  0  0  0  0  0  0  0
   -4.5940    1.7833    0.0080 H   0  0  0  0  0  0  0  0  0  0  0  0
   -4.7059   -1.3329    1.5486 H   0  0  0  0  0  0  0  0  0  0  0  0
    0.0707   -2.7037   -0.8687 H   0  0  0  0  0  0  0  0  0  0  0  0
    4.3711   -0.4497   -0.3353 H   0  0  0  0  0  0  0  0  0  0  0  0
  1  2  1  0
  2  3  2  0
  3  4  1  0
  4  5  2  0
  5  6  1  0
  6  7  1  0
  7  8  1  0
  8  9  2  0
  8 10  1  0
  8 11  1  0
  5 12  1  0
 12 13  1  0
 13 14  2  0
 12 15  2  0
 15 16  1  0
 15  2  1  0
  1 17  1  0
  1 18  1  0
  1 19  1  0
  4 20  1  0
  6 21  1  0
  6 22  1  0
 10 23  1  0
 11 24  1  0
 13 25  1  0
 16 26  1  0
M  END
$$$$

     RDKit          3D

 26 26  0  0  0  0  0  0  0  0999 V2000
   -4.2231    0.4503    0.5932 C   0  0  0  0  0  0  0  0  0  0  0  0
   -2.7459    0.3099    0.4366 C   0  0  0  0  0  0  0  0  0  0  0  0
   -1.8880    0.9538    1.2468 N   0  0  0  0  0  0  0  0  0  0  0  0
   -0.5566    0.8483    1.1319 C   0  0  0  0  0  0  0  0  0  0  0  0
   -0.0073    0.0545    0.1525 C   0  0  0  0  0  0  0  0  0  0  0  0
    1.4617   -0.0468    0.0515 C   0  0  0  0  0  0  0  0  0  0  0  0
    2.0808    0.7536    1.0445 O   0  0  0  0  0  0  0  0  0  0  0  0
    3.7457    0.5612    0.8346 P   0  0  0  0  0  5  0  0  0  0  0  0
    4.0099    0.3152   -0.6312 O   0  0  0  0  0  0  0  0  0  0  0  0
    4.2560   -0.8078    1.7216 O   0  0  0  0  0  0  0  0  0  0  0  0
    4.5927    1.9434    1.3142 O   0  0  0  0  0  0  0  0  0  0  0  0
   -0.8480   -0.6216   -0.6977 C   0  0  0  0  0  0  0  0  0  0  0  0
   -0.2647   -1.4573   -1.7330 C   0  0  0  0  0  0  0  0  0  0  0  0
    0.9874   -1.5727   -1.8628 O   0  0  0  0  0  0  0  0  0  0  0  0
   -2.2325   -0.5067   -0.5717 C   0  0  0  0  0  0  0  0  0  0  0  0
   -3.0707   -1.1816   -1.4202 O   0  0  0  0  0  0  0  0  0  0  0  0
   -4.7115    0.8722   -0.2886 H   0  0  0  0  0  0  0  0  0  0  0  0
   -4.4047    1.1506    1.4377 H   0  0  0  0  0  0  0  0  0  0  0  0
   -4.6846   -0.5217    0.9159 H   0  0  0  0  0  0  0  0  0  0  0  0
    0.0931    1.3798    1.8000 H   0  0  0  0  0  0  0  0  0  0  0  0
    1.8430   -1.0872    0.2076 H   0  0  0  0  0  0  0  0  0  0  0  0
    1.8362    0.3505   -0.9104 H   0  0  0  0  0  0  0  0  0  0  0  0
    3.7332   -0.8648    2.5691 H   0  0  0  0  0  0  0  0  0  0  0  0
    4.6376    2.5406    0.5034 H   0  0  0  0  0  0  0  0  0  0  0  0
   -0.8489   -2.0315   -2.4552 H   0  0  0  0  0  0  0  0  0  0  0  0
   -2.7907   -1.7841   -2.1653 H   0  0  0  0  0  0  0  0  0  0  0  0
  1  2  1  0
  2  3  2  0
  3  4  1  0
  4  5  2  0
  5  6  1  0
  6  7  1  0
  7  8  1  0
  8  9  2  0
  8 10  1  0
  8 11  1  0
  5 12  1  0
 12 13  1  0
 13 14  2  0
 12 15  2  0
 15 16  1  0
 15  2  1  0
  1 17  1  0
  1 18  1  0
  1 19  1  0
  4 20  1  0
  6 21  1  0
  6 22  1  0
 10 23  1  0
 11 24  1  0
 13 25  1  0
 16 26  1  0
M  END
$$$$

     RDKit          3D

 26 26  0  0  0  0  0  0  0  0999 V2000
    2.5836   -0.1821    2.8886 C   0  0  0  0  0  0  0  0  0  0  0  0
    1.7113   -0.0814    1.6876 C   0  0  0  0  0  0  0  0  0  0  0  0
    0.7574    0.8483    1.6453 N   0  0  0  0  0  0  0  0  0  0  0  0
   -0.0556    0.9741    0.5739 C   0  0  0  0  0  0  0  0  0  0  0  0
    0.0552    0.1599   -0.5164 C   0  0  0  0  0  0  0  0  0  0  0  0
   -0.7734    0.2391   -1.7191 C   0  0  0  0  0  0  0  0  0  0  0  0
   -1.7655    1.1624   -1.7480 O   0  0  0  0  0  0  0  0  0  0  0  0
   -2.9971    1.0048   -0.6497 P   0  0  0  0  0  5  0  0  0  0  0  0
   -2.7726   -0.0274    0.4216 O   0  0  0  0  0  0  0  0  0  0  0  0
   -4.4573    0.5173   -1.4304 O   0  0  0  0  0  0  0  0  0  0  0  0
   -3.3200    2.5019    0.0639 O   0  0  0  0  0  0  0  0  0  0  0  0
    1.0615   -0.8251   -0.4809 C   0  0  0  0  0  0  0  0  0  0  0  0
    1.2154   -1.6970   -1.6224 C   0  0  0  0  0  0  0  0  0  0  0  0
    2.0752   -2.5860   -1.6804 O   0  0  0  0  0  0  0  0  0  0  0  0
    1.8934   -0.9643    0.5993 C   0  0  0  0  0  0  0  0  0  0  0  0
    2.9012   -1.8680    0.7653 O   0  0  0  0  0  0  0  0  0  0  0  0
    2.0214   -0.5253    3.7865 H   0  0  0  0  0  0  0  0  0  0  0  0
    3.3769   -0.9198    2.7040 H   0  0  0  0  0  0  0  0  0  0  0  0
    3.0090    0.8296    3.1138 H   0  0  0  0  0  0  0  0  0  0  0  0
   -0.7907    1.7705    0.6205 H   0  0  0  0  0  0  0  0  0  0  0  0
   -1.1495   -0.8024   -1.9405 H   0  0  0  0  0  0  0  0  0  0  0  0
   -0.0823    0.4638   -2.5739 H   0  0  0  0  0  0  0  0  0  0  0  0
   -5.2359    0.9046   -0.9702 H   0  0  0  0  0  0  0  0  0  0  0  0
   -3.0027    3.2625   -0.4613 H   0  0  0  0  0  0  0  0  0  0  0  0
    0.5627   -1.6070   -2.5080 H   0  0  0  0  0  0  0  0  0  0  0  0
    3.1786   -2.5529    0.1352 H   0  0  0  0  0  0  0  0  0  0  0  0
  1  2  1  0
  2  3  2  0
  3  4  1  0
  4  5  2  0
  5  6  1  0
  6  7  1  0
  7  8  1  0
  8  9  2  0
  8 10  1  0
  8 11  1  0
  5 12  1  0
 12 13  1  0
 13 14  2  0
 12 15  2  0
 15 16  1  0
 15  2  1  0
  1 17  1  0
  1 18  1  0
  1 19  1  0
  4 20  1  0
  6 21  1  0
  6 22  1  0
 10 23  1  0
 11 24  1  0
 13 25  1  0
 16 26  1  0
M  END
$$$$

     RDKit          3D

 26 26  0  0  0  0  0  0  0  0999 V2000
   -4.2867    0.6817   -0.1990 C   0  0  0  0  0  0  0  0  0  0  0  0
   -2.8364    0.5455   -0.1855 C   0  0  0  0  0  0  0  0  0  0  0  0
   -2.0128    1.3459   -0.8780 N   0  0  0  0  0  0  0  0  0  0  0  0
   -0.6660    1.2392   -0.8315 C   0  0  0  0  0  0  0  0  0  0  0  0
   -0.0451    0.2687   -0.0469 C   0  0  0  0  0  0  0  0  0  0  0  0
    1.3806    0.3391    0.1719 C   0  0  0  0  0  0  0  0  0  0  0  0
    2.2416   -0.7319   -0.0732 O   0  0  0  0  0  0  0  0  0  0  0  0
    3.7992   -0.0918    0.2892 P   0  0  0  0  0  5  0  0  0  0  0  0
    3.5743    1.0590    1.2858 O   0  0  0  0  0  0  0  0  0  0  0  0
    4.7916   -1.3052    0.9067 O   0  0  0  0  0  0  0  0  0  0  0  0
    4.4423    0.6137   -1.0745 O   0  0  0  0  0  0  0  0  0  0  0  0
   -0.8593   -0.5857    0.6860 C   0  0  0  0  0  0  0  0  0  0  0  0
   -0.3147   -1.6243    1.5019 C   0  0  0  0  0  0  0  0  0  0  0  0
    0.8968   -1.8908    1.6180 O   0  0  0  0  0  0  0  0  0  0  0  0
   -2.2238   -0.4123    0.5861 C   0  0  0  0  0  0  0  0  0  0  0  0
   -3.0029   -1.2755    1.3111 O   0  0  0  0  0  0  0  0  0  0  0  0
   -4.8009    0.7852    0.7915 H   0  0  0  0  0  0  0  0  0  0  0  0
   -4.5743    1.6226   -0.7138 H   0  0  0  0  0  0  0  0  0  0  0  0
   -4.7834   -0.1580   -0.7517 H   0  0  0  0  0  0  0  0  0  0  0  0
   -0.1210    1.9624   -1.4416 H   0  0  0  0  0  0  0  0  0  0  0  0
    1.6530    0.8571    1.1527 H   0  0  0  0  0  0  0  0  0  0  0  0
    1.7530    1.1100   -0.7092 H   0  0  0  0  0  0  0  0  0  0  0  0
    5.5898   -1.3825    0.2905 H   0  0  0  0  0  0  0  0  0  0  0  0
    5.4469    0.4395   -1.0767 H   0  0  0  0  0  0  0  0  0  0  0  0
   -1.0029   -2.2246    2.0687 H   0  0  0  0  0  0  0  0  0  0  0  0
   -4.0389   -1.1869    1.2441 H   0  0  0  0  0  0  0  0  0  0  0  0
  1  2  1  0
  2  3  2  0
  3  4  1  0
  4  5  2  0
  5  6  1  0
  6  7  1  0
  7  8  1  0
  8  9  2  0
  8 10  1  0
  8 11  1  0
  5 12  1  0
 12 13  1  0
 13 14  2  0
 12 15  2  0
 15 16  1  0
 15  2  1  0
  1 17  1  0
  1 18  1  0
  1 19  1  0
  4 20  1  0
  6 21  1  0
  6 22  1  0
 10 23  1  0
 11 24  1  0
 13 25  1  0
 16 26  1  0
M  END
$$$$

     RDKit          3D

 26 26  0  0  0  0  0  0  0  0999 V2000
   -3.4986    1.5945    0.0615 C   0  0  0  0  0  0  0  0  0  0  0  0
   -2.2038    0.9168   -0.0898 C   0  0  0  0  0  0  0  0  0  0  0  0
   -1.1297    1.5635   -0.5525 N   0  0  0  0  0  0  0  0  0  0  0  0
    0.0534    0.9159   -0.6825 C   0  0  0  0  0  0  0  0  0  0  0  0
    0.2065   -0.4066   -0.3525 C   0  0  0  0  0  0  0  0  0  0  0  0
    1.4616   -1.1471   -0.4916 C   0  0  0  0  0  0  0  0  0  0  0  0
    2.5437   -0.4579   -0.9228 O   0  0  0  0  0  0  0  0  0  0  0  0
    3.1274    0.7603    0.0413 P   0  0  0  0  0  5  0  0  0  0  0  0
    2.2434    1.1291    1.2002 O   0  0  0  0  0  0  0  0  0  0  0  0
    3.4835    2.1114   -0.9082 O   0  0  0  0  0  0  0  0  0  0  0  0
    4.6296    0.3209    0.7545 O   0  0  0  0  0  0  0  0  0  0  0  0
   -0.9100   -1.1118    0.1363 C   0  0  0  0  0  0  0  0  0  0  0  0
   -0.7736   -2.5209    0.4817 C   0  0  0  0  0  0  0  0  0  0  0  0
   -1.7160   -3.2086    0.9143 O   0  0  0  0  0  0  0  0  0  0  0  0
   -2.0970   -0.4409    0.2608 C   0  0  0  0  0  0  0  0  0  0  0  0
   -3.2401   -1.0150    0.7209 O   0  0  0  0  0  0  0  0  0  0  0  0
   -4.2846    1.1315   -0.5778 H   0  0  0  0  0  0  0  0  0  0  0  0
   -3.4022    2.6439   -0.2862 H   0  0  0  0  0  0  0  0  0  0  0  0
   -3.8260    1.6519    1.1220 H   0  0  0  0  0  0  0  0  0  0  0  0
    0.8694    1.4814   -1.0789 H   0  0  0  0  0  0  0  0  0  0  0  0
    1.6637   -1.6911    0.4818 H   0  0  0  0  0  0  0  0  0  0  0  0
    1.3013   -1.9961   -1.2192 H   0  0  0  0  0  0  0  0  0  0  0  0
    4.2451    2.6315   -0.5784 H   0  0  0  0  0  0  0  0  0  0  0  0
    4.5236    0.0429    1.6818 H   0  0  0  0  0  0  0  0  0  0  0  0
    0.2086   -3.0037    0.3545 H   0  0  0  0  0  0  0  0  0  0  0  0
   -3.4795   -1.8955    1.0296 H   0  0  0  0  0  0  0  0  0  0  0  0
  1  2  1  0
  2  3  2  0
  3  4  1  0
  4  5  2  0
  5  6  1  0
  6  7  1  0
  7  8  1  0
  8  9  2  0
  8 10  1  0
  8 11  1  0
  5 12  1  0
 12 13  1  0
 13 14  2  0
 12 15  2  0
 15 16  1  0
 15  2  1  0
  1 17  1  0
  1 18  1  0
  1 19  1  0
  4 20  1  0
  6 21  1  0
  6 22  1  0
 10 23  1  0
 11 24  1  0
 13 25  1  0
 16 26  1  0
M  END
$$$$

     RDKit          3D

 26 26  0  0  0  0  0  0  0  0999 V2000
   -4.0709   -1.4200    0.2711 C   0  0  0  0  0  0  0  0  0  0  0  0
   -2.6500   -1.0188   -0.0001 C   0  0  0  0  0  0  0  0  0  0  0  0
   -1.8201   -1.8529   -0.5810 N   0  0  0  0  0  0  0  0  0  0  0  0
   -0.5366   -1.5233   -0.7851 C   0  0  0  0  0  0  0  0  0  0  0  0
   -0.0097   -0.2799   -0.3906 C   0  0  0  0  0  0  0  0  0  0  0  0
    1.3916   -0.0414   -0.6973 C   0  0  0  0  0  0  0  0  0  0  0  0
    2.2289    0.2725    0.3824 O   0  0  0  0  0  0  0  0  0  0  0  0
    3.7762    0.4594   -0.2301 P   0  0  0  0  0  5  0  0  0  0  0  0
    3.6395    0.6880   -1.7372 O   0  0  0  0  0  0  0  0  0  0  0  0
    4.6524    1.6928    0.4886 O   0  0  0  0  0  0  0  0  0  0  0  0
    4.6324   -1.0130   -0.0249 O   0  0  0  0  0  0  0  0  0  0  0  0
   -0.8466    0.6129    0.2198 C   0  0  0  0  0  0  0  0  0  0  0  0
   -0.3696    1.9063    0.6251 C   0  0  0  0  0  0  0  0  0  0  0  0
    0.7874    2.2677    0.4697 O   0  0  0  0  0  0  0  0  0  0  0  0
   -2.1657    0.2218    0.4058 C   0  0  0  0  0  0  0  0  0  0  0  0
   -3.0756    1.0399    1.0040 O   0  0  0  0  0  0  0  0  0  0  0  0
   -4.7303   -1.4205   -0.6152 H   0  0  0  0  0  0  0  0  0  0  0  0
   -4.1006   -2.4716    0.6862 H   0  0  0  0  0  0  0  0  0  0  0  0
   -4.5120   -0.8198    1.1352 H   0  0  0  0  0  0  0  0  0  0  0  0
    0.0967   -2.2471   -1.3222 H   0  0  0  0  0  0  0  0  0  0  0  0
    1.5359    0.6587   -1.5129 H   0  0  0  0  0  0  0  0  0  0  0  0
    1.8113   -1.0833   -1.0826 H   0  0  0  0  0  0  0  0  0  0  0  0
    4.1068    2.4684    0.7628 H   0  0  0  0  0  0  0  0  0  0  0  0
    4.1653   -1.6295    0.6111 H   0  0  0  0  0  0  0  0  0  0  0  0
   -1.0638    2.6016    1.0917 H   0  0  0  0  0  0  0  0  0  0  0  0
   -2.8731    1.9310    1.3825 H   0  0  0  0  0  0  0  0  0  0  0  0
  1  2  1  0
  2  3  2  0
  3  4  1  0
  4  5  2  0
  5  6  1  0
  6  7  1  0
  7  8  1  0
  8  9  2  0
  8 10  1  0
  8 11  1  0
  5 12  1  0
 12 13  1  0
 13 14  2  0
 12 15  2  0
 15 16  1  0
 15  2  1  0
  1 17  1  0
  1 18  1  0
  1 19  1  0
  4 20  1  0
  6 21  1  0
  6 22  1  0
 10 23  1  0
 11 24  1  0
 13 25  1  0
 16 26  1  0
M  END
$$$$

     RDKit          3D

 26 26  0  0  0  0  0  0  0  0999 V2000
   -4.1326    0.1999    1.2367 C   0  0  0  0  0  0  0  0  0  0  0  0
   -2.6821    0.1249    0.9275 C   0  0  0  0  0  0  0  0  0  0  0  0
   -1.7814    0.2207    1.8996 N   0  0  0  0  0  0  0  0  0  0  0  0
   -0.4378    0.1556    1.6488 C   0  0  0  0  0  0  0  0  0  0  0  0
    0.0377   -0.0107    0.3895 C   0  0  0  0  0  0  0  0  0  0  0  0
    1.4803   -0.0816    0.1119 C   0  0  0  0  0  0  0  0  0  0  0  0
    2.2346    0.0389    1.2558 O   0  0  0  0  0  0  0  0  0  0  0  0
    3.8592   -0.0482    0.8839 P   0  0  0  0  0  5  0  0  0  0  0  0
    4.6643    0.1534    2.1577 O   0  0  0  0  0  0  0  0  0  0  0  0
    4.3004   -1.5471    0.2456 O   0  0  0  0  0  0  0  0  0  0  0  0
    4.2757    1.1912   -0.1804 O   0  0  0  0  0  0  0  0  0  0  0  0
   -0.8756   -0.1166   -0.6679 C   0  0  0  0  0  0  0  0  0  0  0  0
   -0.3642   -0.2946   -2.0159 C   0  0  0  0  0  0  0  0  0  0  0  0
   -1.1288   -0.3934   -2.9836 O   0  0  0  0  0  0  0  0  0  0  0  0
   -2.2160   -0.0479   -0.3870 C   0  0  0  0  0  0  0  0  0  0  0  0
   -3.2141   -0.1374   -1.3280 O   0  0  0  0  0  0  0  0  0  0  0  0
   -4.7442   -0.4302    0.5586 H   0  0  0  0  0  0  0  0  0  0  0  0
   -4.2794   -0.0946    2.3011 H   0  0  0  0  0  0  0  0  0  0  0  0
   -4.5173    1.2363    1.1315 H   0  0  0  0  0  0  0  0  0  0  0  0
    0.2158    0.2426    2.4977 H   0  0  0  0  0  0  0  0  0  0  0  0
    1.7606   -1.0152   -0.4412 H   0  0  0  0  0  0  0  0  0  0  0  0
    1.7217    0.7494   -0.5978 H   0  0  0  0  0  0  0  0  0  0  0  0
    4.5078   -1.5119   -0.7132 H   0  0  0  0  0  0  0  0  0  0  0  0
    3.7806    2.0206   -0.0282 H   0  0  0  0  0  0  0  0  0  0  0  0
    0.6990   -0.3475   -2.2252 H   0  0  0  0  0  0  0  0  0  0  0  0
   -3.1644   -0.2566   -2.2920 H   0  0  0  0  0  0  0  0  0  0  0  0
  1  2  1  0
  2  3  2  0
  3  4  1  0
  4  5  2  0
  5  6  1  0
  6  7  1  0
  7  8  1  0
  8  9  2  0
  8 10  1  0
  8 11  1  0
  5 12  1  0
 12 13  1  0
 13 14  2  0
 12 15  2  0
 15 16  1  0
 15  2  1  0
  1 17  1  0
  1 18  1  0
  1 19  1  0
  4 20  1  0
  6 21  1  0
  6 22  1  0
 10 23  1  0
 11 24  1  0
 13 25  1  0
 16 26  1  0
M  END
$$$$

     RDKit          3D

 26 26  0  0  0  0  0  0  0  0999 V2000
   -1.6223   -0.0932   -3.8639 C   0  0  0  0  0  0  0  0  0  0  0  0
   -1.0987   -0.1473   -2.4746 C   0  0  0  0  0  0  0  0  0  0  0  0
   -1.1811   -1.2849   -1.7657 N   0  0  0  0  0  0  0  0  0  0  0  0
   -0.7099   -1.3329   -0.5161 C   0  0  0  0  0  0  0  0  0  0  0  0
   -0.1390   -0.2106    0.0427 C   0  0  0  0  0  0  0  0  0  0  0  0
    0.3909   -0.2254    1.4160 C   0  0  0  0  0  0  0  0  0  0  0  0
    0.2046   -1.4887    1.9592 O   0  0  0  0  0  0  0  0  0  0  0  0
    0.7879   -1.5903    3.5399 P   0  0  0  0  0  5  0  0  0  0  0  0
    0.1541   -2.7605    4.2615 O   0  0  0  0  0  0  0  0  0  0  0  0
    0.3833   -0.1735    4.3436 O   0  0  0  0  0  0  0  0  0  0  0  0
    2.4670   -1.8683    3.5553 O   0  0  0  0  0  0  0  0  0  0  0  0
   -0.0347    0.9984   -0.6678 C   0  0  0  0  0  0  0  0  0  0  0  0
    0.5692    2.1263   -0.0283 C   0  0  0  0  0  0  0  0  0  0  0  0
    0.6971    3.2253   -0.5888 O   0  0  0  0  0  0  0  0  0  0  0  0
   -0.5268    1.0250   -1.9537 C   0  0  0  0  0  0  0  0  0  0  0  0
   -0.5131    2.0954   -2.7848 O   0  0  0  0  0  0  0  0  0  0  0  0
   -0.8276   -0.5727   -4.5039 H   0  0  0  0  0  0  0  0  0  0  0  0
   -1.7642    0.9376   -4.1948 H   0  0  0  0  0  0  0  0  0  0  0  0
   -2.5537   -0.6940   -3.9123 H   0  0  0  0  0  0  0  0  0  0  0  0
   -0.7438   -2.2183    0.1134 H   0  0  0  0  0  0  0  0  0  0  0  0
    1.4811    0.0575    1.4374 H   0  0  0  0  0  0  0  0  0  0  0  0
   -0.1897    0.4910    2.0215 H   0  0  0  0  0  0  0  0  0  0  0  0
    1.1498    0.2554    4.7899 H   0  0  0  0  0  0  0  0  0  0  0  0
    2.8224   -1.5910    2.6761 H   0  0  0  0  0  0  0  0  0  0  0  0
    0.9462    2.0638    0.9907 H   0  0  0  0  0  0  0  0  0  0  0  0
   -0.1490    2.9761   -2.5618 H   0  0  0  0  0  0  0  0  0  0  0  0
  1  2  1  0
  2  3  2  0
  3  4  1  0
  4  5  2  0
  5  6  1  0
  6  7  1  0
  7  8  1  0
  8  9  2  0
  8 10  1  0
  8 11  1  0
  5 12  1  0
 12 13  1  0
 13 14  2  0
 12 15  2  0
 15 16  1  0
 15  2  1  0
  1 17  1  0
  1 18  1  0
  1 19  1  0
  4 20  1  0
  6 21  1  0
  6 22  1  0
 10 23  1  0
 11 24  1  0
 13 25  1  0
 16 26  1  0
M  END
$$$$

     RDKit          3D

 26 26  0  0  0  0  0  0  0  0999 V2000
   -4.0639    1.2051   -0.1492 C   0  0  0  0  0  0  0  0  0  0  0  0
   -2.6092    0.8160   -0.0961 C   0  0  0  0  0  0  0  0  0  0  0  0
   -1.6834    1.7724   -0.2190 N   0  0  0  0  0  0  0  0  0  0  0  0
   -0.3706    1.4228   -0.1713 C   0  0  0  0  0  0  0  0  0  0  0  0
    0.0019    0.1147   -0.0005 C   0  0  0  0  0  0  0  0  0  0  0  0
    1.4057   -0.2639    0.0510 C   0  0  0  0  0  0  0  0  0  0  0  0
    2.2747    0.8157   -0.0879 O   0  0  0  0  0  0  0  0  0  0  0  0
    3.8468    0.1947   -0.0046 P   0  0  0  0  0  5  0  0  0  0  0  0
    3.8390   -0.9672    0.9587 O   0  0  0  0  0  0  0  0  0  0  0  0
    4.3904   -0.3099   -1.5213 O   0  0  0  0  0  0  0  0  0  0  0  0
    4.8508    1.4025    0.6387 O   0  0  0  0  0  0  0  0  0  0  0  0
   -0.9779   -0.8738    0.1264 C   0  0  0  0  0  0  0  0  0  0  0  0
   -0.5834   -2.2557    0.3068 C   0  0  0  0  0  0  0  0  0  0  0  0
   -1.3579   -3.2036    0.4287 O   0  0  0  0  0  0  0  0  0  0  0  0
   -2.2961   -0.5399    0.0808 C   0  0  0  0  0  0  0  0  0  0  0  0
   -3.3584   -1.4042    0.1914 O   0  0  0  0  0  0  0  0  0  0  0  0
   -4.6690    0.3486   -0.4468 H   0  0  0  0  0  0  0  0  0  0  0  0
   -4.3356    1.5115    0.8977 H   0  0  0  0  0  0  0  0  0  0  0  0
   -4.1800    2.0441   -0.8470 H   0  0  0  0  0  0  0  0  0  0  0  0
    0.4127    2.1594   -0.2658 H   0  0  0  0  0  0  0  0  0  0  0  0
    1.7005   -1.0053   -0.7269 H   0  0  0  0  0  0  0  0  0  0  0  0
    1.6941   -0.7534    1.0270 H   0  0  0  0  0  0  0  0  0  0  0  0
    4.6606    0.4321   -2.0919 H   0  0  0  0  0  0  0  0  0  0  0  0
    4.3345    2.2241    0.8613 H   0  0  0  0  0  0  0  0  0  0  0  0
    0.4897   -2.5204    0.3430 H   0  0  0  0  0  0  0  0  0  0  0  0
   -3.4160   -2.3667    0.3165 H   0  0  0  0  0  0  0  0  0  0  0  0
  1  2  1  0
  2  3  2  0
  3  4  1  0
  4  5  2  0
  5  6  1  0
  6  7  1  0
  7  8  1  0
  8  9  2  0
  8 10  1  0
  8 11  1  0
  5 12  1  0
 12 13  1  0
 13 14  2  0
 12 15  2  0
 15 16  1  0
 15  2  1  0
  1 17  1  0
  1 18  1  0
  1 19  1  0
  4 20  1  0
  6 21  1  0
  6 22  1  0
 10 23  1  0
 11 24  1  0
 13 25  1  0
 16 26  1  0
M  END
$$$$

     RDKit          3D

 26 26  0  0  0  0  0  0  0  0999 V2000
   -3.6698   -1.6870    1.5884 C   0  0  0  0  0  0  0  0  0  0  0  0
   -2.3930   -1.1678    1.0111 C   0  0  0  0  0  0  0  0  0  0  0  0
   -1.6743   -1.9038    0.1828 N   0  0  0  0  0  0  0  0  0  0  0  0
   -0.5251   -1.4927   -0.3643 C   0  0  0  0  0  0  0  0  0  0  0  0
   -0.0436   -0.2541   -0.0715 C   0  0  0  0  0  0  0  0  0  0  0  0
    1.1996    0.2805   -0.6194 C   0  0  0  0  0  0  0  0  0  0  0  0
    1.8639   -0.5659   -1.4663 O   0  0  0  0  0  0  0  0  0  0  0  0
    3.2702    0.2267   -1.9942 P   0  0  0  0  0  5  0  0  0  0  0  0
    4.0100    0.7462   -0.7901 O   0  0  0  0  0  0  0  0  0  0  0  0
    4.2573   -0.8508   -2.8616 O   0  0  0  0  0  0  0  0  0  0  0  0
    2.9146    1.5206   -3.0133 O   0  0  0  0  0  0  0  0  0  0  0  0
   -0.7748    0.5591    0.8028 C   0  0  0  0  0  0  0  0  0  0  0  0
   -0.2665    1.8794    1.1181 C   0  0  0  0  0  0  0  0  0  0  0  0
   -0.7865    2.7205    1.8685 O   0  0  0  0  0  0  0  0  0  0  0  0
   -1.9591    0.1246    1.3613 C   0  0  0  0  0  0  0  0  0  0  0  0
   -2.7520    0.8324    2.2242 O   0  0  0  0  0  0  0  0  0  0  0  0
   -4.2602   -2.2578    0.8382 H   0  0  0  0  0  0  0  0  0  0  0  0
   -3.4427   -2.2803    2.4886 H   0  0  0  0  0  0  0  0  0  0  0  0
   -4.3322   -0.8454    1.9168 H   0  0  0  0  0  0  0  0  0  0  0  0
    0.0198   -2.1575   -1.0446 H   0  0  0  0  0  0  0  0  0  0  0  0
    1.8886    0.5720    0.2214 H   0  0  0  0  0  0  0  0  0  0  0  0
    0.9580    1.2112   -1.2120 H   0  0  0  0  0  0  0  0  0  0  0  0
    4.8417   -1.3809   -2.2526 H   0  0  0  0  0  0  0  0  0  0  0  0
    3.5815    2.2489   -2.9407 H   0  0  0  0  0  0  0  0  0  0  0  0
    0.6748    2.1991    0.6617 H   0  0  0  0  0  0  0  0  0  0  0  0
   -2.6002    1.7228    2.5612 H   0  0  0  0  0  0  0  0  0  0  0  0
  1  2  1  0
  2  3  2  0
  3  4  1  0
  4  5  2  0
  5  6  1  0
  6  7  1  0
  7  8  1  0
  8  9  2  0
  8 10  1  0
  8 11  1  0
  5 12  1  0
 12 13  1  0
 13 14  2  0
 12 15  2  0
 15 16  1  0
 15  2  1  0
  1 17  1  0
  1 18  1  0
  1 19  1  0
  4 20  1  0
  6 21  1  0
  6 22  1  0
 10 23  1  0
 11 24  1  0
 13 25  1  0
 16 26  1  0
M  END
$$$$

     RDKit          3D

 26 26  0  0  0  0  0  0  0  0999 V2000
   -4.0931   -1.3384    0.4854 C   0  0  0  0  0  0  0  0  0  0  0  0
   -2.6586   -0.9941    0.3851 C   0  0  0  0  0  0  0  0  0  0  0  0
   -1.6744   -1.8763    0.5076 N   0  0  0  0  0  0  0  0  0  0  0  0
   -0.3652   -1.5191    0.4088 C   0  0  0  0  0  0  0  0  0  0  0  0
    0.0138   -0.2262    0.1767 C   0  0  0  0  0  0  0  0  0  0  0  0
    1.4125    0.2257    0.0585 C   0  0  0  0  0  0  0  0  0  0  0  0
    2.3302   -0.7837    0.2052 O   0  0  0  0  0  0  0  0  0  0  0  0
    3.8804   -0.1127    0.0450 P   0  0  0  0  0  5  0  0  0  0  0  0
    4.0889    1.0032    1.0463 O   0  0  0  0  0  0  0  0  0  0  0  0
    5.0838   -1.2885    0.2788 O   0  0  0  0  0  0  0  0  0  0  0  0
    4.0858    0.5357   -1.5019 O   0  0  0  0  0  0  0  0  0  0  0  0
   -0.9913    0.7386    0.0407 C   0  0  0  0  0  0  0  0  0  0  0  0
   -0.5876    2.1012   -0.2037 C   0  0  0  0  0  0  0  0  0  0  0  0
   -1.4001    3.0210   -0.3375 O   0  0  0  0  0  0  0  0  0  0  0  0
   -2.3152    0.3451    0.1462 C   0  0  0  0  0  0  0  0  0  0  0  0
   -3.3599    1.2117    0.0281 O   0  0  0  0  0  0  0  0  0  0  0  0
   -4.6810   -0.4443    0.7413 H   0  0  0  0  0  0  0  0  0  0  0  0
   -4.2951   -2.1642    1.1809 H   0  0  0  0  0  0  0  0  0  0  0  0
   -4.4483   -1.6563   -0.5345 H   0  0  0  0  0  0  0  0  0  0  0  0
    0.4208   -2.2764    0.5156 H   0  0  0  0  0  0  0  0  0  0  0  0
    1.5771    0.9854    0.8745 H   0  0  0  0  0  0  0  0  0  0  0  0
    1.4936    0.7417   -0.9371 H   0  0  0  0  0  0  0  0  0  0  0  0
    4.6500   -2.0387    0.7553 H   0  0  0  0  0  0  0  0  0  0  0  0
    4.7355    1.2764   -1.4931 H   0  0  0  0  0  0  0  0  0  0  0  0
    0.4550    2.3673   -0.2793 H   0  0  0  0  0  0  0  0  0  0  0  0
   -3.3576    2.1661   -0.1352 H   0  0  0  0  0  0  0  0  0  0  0  0
  1  2  1  0
  2  3  2  0
  3  4  1  0
  4  5  2  0
  5  6  1  0
  6  7  1  0
  7  8  1  0
  8  9  2  0
  8 10  1  0
  8 11  1  0
  5 12  1  0
 12 13  1  0
 13 14  2  0
 12 15  2  0
 15 16  1  0
 15  2  1  0
  1 17  1  0
  1 18  1  0
  1 19  1  0
  4 20  1  0
  6 21  1  0
  6 22  1  0
 10 23  1  0
 11 24  1  0
 13 25  1  0
 16 26  1  0
M  END
$$$$

     RDKit          3D

 26 26  0  0  0  0  0  0  0  0999 V2000
   -4.0255   -0.7922   -1.3582 C   0  0  0  0  0  0  0  0  0  0  0  0
   -2.6172   -0.5401   -0.9533 C   0  0  0  0  0  0  0  0  0  0  0  0
   -1.6379   -1.2858   -1.4687 N   0  0  0  0  0  0  0  0  0  0  0  0
   -0.3705   -1.0553   -1.1012 C   0  0  0  0  0  0  0  0  0  0  0  0
   -0.0268   -0.0651   -0.1990 C   0  0  0  0  0  0  0  0  0  0  0  0
    1.3876    0.1524    0.1678 C   0  0  0  0  0  0  0  0  0  0  0  0
    2.2235   -0.7611   -0.5009 O   0  0  0  0  0  0  0  0  0  0  0  0
    3.8091   -0.3878    0.0203 P   0  0  0  0  0  5  0  0  0  0  0  0
    3.7525    0.1078    1.4501 O   0  0  0  0  0  0  0  0  0  0  0  0
    4.7616   -1.7869    0.0160 O   0  0  0  0  0  0  0  0  0  0  0  0
    4.4777    0.8267   -0.9453 O   0  0  0  0  0  0  0  0  0  0  0  0
   -1.0544    0.6973    0.3247 C   0  0  0  0  0  0  0  0  0  0  0  0
   -0.7079    1.7319    1.2714 C   0  0  0  0  0  0  0  0  0  0  0  0
    0.4601    1.9943    1.6556 O   0  0  0  0  0  0  0  0  0  0  0  0
   -2.3686    0.4766   -0.0406 C   0  0  0  0  0  0  0  0  0  0  0  0
   -3.4104    1.2108    0.4564 O   0  0  0  0  0  0  0  0  0  0  0  0
   -4.6985   -0.0537   -0.9087 H   0  0  0  0  0  0  0  0  0  0  0  0
   -4.0766   -0.6842   -2.4779 H   0  0  0  0  0  0  0  0  0  0  0  0
   -4.3467   -1.8022   -1.0610 H   0  0  0  0  0  0  0  0  0  0  0  0
    0.4587   -1.6516   -1.5072 H   0  0  0  0  0  0  0  0  0  0  0  0
    1.7043    1.1900   -0.0460 H   0  0  0  0  0  0  0  0  0  0  0  0
    1.4762   -0.0105    1.2584 H   0  0  0  0  0  0  0  0  0  0  0  0
    4.1329   -2.5418    0.2216 H   0  0  0  0  0  0  0  0  0  0  0  0
    5.4735    0.7455   -0.9126 H   0  0  0  0  0  0  0  0  0  0  0  0
   -1.5077    2.3438    1.6973 H   0  0  0  0  0  0  0  0  0  0  0  0
   -3.2694    1.9410    1.1067 H   0  0  0  0  0  0  0  0  0  0  0  0
  1  2  1  0
  2  3  2  0
  3  4  1  0
  4  5  2  0
  5  6  1  0
  6  7  1  0
  7  8  1  0
  8  9  2  0
  8 10  1  0
  8 11  1  0
  5 12  1  0
 12 13  1  0
 13 14  2  0
 12 15  2  0
 15 16  1  0
 15  2  1  0
  1 17  1  0
  1 18  1  0
  1 19  1  0
  4 20  1  0
  6 21  1  0
  6 22  1  0
 10 23  1  0
 11 24  1  0
 13 25  1  0
 16 26  1  0
M  END
$$$$

     RDKit          3D

 26 26  0  0  0  0  0  0  0  0999 V2000
   -4.0915   -0.0288    1.4922 C   0  0  0  0  0  0  0  0  0  0  0  0
   -2.6555   -0.0783    1.1089 C   0  0  0  0  0  0  0  0  0  0  0  0
   -1.7122   -0.6712    1.8349 N   0  0  0  0  0  0  0  0  0  0  0  0
   -0.4111   -0.6901    1.4423 C   0  0  0  0  0  0  0  0  0  0  0  0
    0.0064   -0.0976    0.2717 C   0  0  0  0  0  0  0  0  0  0  0  0
    1.4123   -0.0933   -0.1957 C   0  0  0  0  0  0  0  0  0  0  0  0
    2.2444   -0.7624    0.6996 O   0  0  0  0  0  0  0  0  0  0  0  0
    3.8349   -0.7708    0.1941 P   0  0  0  0  0  5  0  0  0  0  0  0
    3.8618   -0.4950   -1.2895 O   0  0  0  0  0  0  0  0  0  0  0  0
    4.5608   -2.2900    0.4612 O   0  0  0  0  0  0  0  0  0  0  0  0
    4.7816    0.3754    1.0032 O   0  0  0  0  0  0  0  0  0  0  0  0
   -0.9610    0.5290   -0.5053 C   0  0  0  0  0  0  0  0  0  0  0  0
   -0.6060    1.1843   -1.7650 C   0  0  0  0  0  0  0  0  0  0  0  0
   -1.5083    1.7361   -2.4328 O   0  0  0  0  0  0  0  0  0  0  0  0
   -2.2757    0.5280   -0.0735 C   0  0  0  0  0  0  0  0  0  0  0  0
   -3.2048    1.1654   -0.8818 O   0  0  0  0  0  0  0  0  0  0  0  0
   -4.6673   -0.4223    0.6044 H   0  0  0  0  0  0  0  0  0  0  0  0
   -4.2985   -0.6504    2.3815 H   0  0  0  0  0  0  0  0  0  0  0  0
   -4.4011    1.0241    1.6111 H   0  0  0  0  0  0  0  0  0  0  0  0
    0.3240   -1.1897    2.0735 H   0  0  0  0  0  0  0  0  0  0  0  0
    1.7963    0.9176   -0.3690 H   0  0  0  0  0  0  0  0  0  0  0  0
    1.4646   -0.6234   -1.1902 H   0  0  0  0  0  0  0  0  0  0  0  0
    5.5452   -2.2131    0.4829 H   0  0  0  0  0  0  0  0  0  0  0  0
    4.6872    1.2743    0.6126 H   0  0  0  0  0  0  0  0  0  0  0  0
    0.4397    1.1744   -2.0899 H   0  0  0  0  0  0  0  0  0  0  0  0
   -4.1662    1.1676   -0.5710 H   0  0  0  0  0  0  0  0  0  0  0  0
  1  2  1  0
  2  3  2  0
  3  4  1  0
  4  5  2  0
  5  6  1  0
  6  7  1  0
  7  8  1  0
  8  9  2  0
  8 10  1  0
  8 11  1  0
  5 12  1  0
 12 13  1  0
 13 14  2  0
 12 15  2  0
 15 16  1  0
 15  2  1  0
  1 17  1  0
  1 18  1  0
  1 19  1  0
  4 20  1  0
  6 21  1  0
  6 22  1  0
 10 23  1  0
 11 24  1  0
 13 25  1  0
 16 26  1  0
M  END
$$$$

     RDKit          3D

 26 26  0  0  0  0  0  0  0  0999 V2000
   -3.9724   -0.0858   -1.4829 C   0  0  0  0  0  0  0  0  0  0  0  0
   -2.5476   -0.0493   -1.0568 C   0  0  0  0  0  0  0  0  0  0  0  0
   -1.5616   -0.0646   -1.9553 N   0  0  0  0  0  0  0  0  0  0  0  0
   -0.2809   -0.0307   -1.5423 C   0  0  0  0  0  0  0  0  0  0  0  0
    0.0211    0.0197   -0.1968 C   0  0  0  0  0  0  0  0  0  0  0  0
    1.4128    0.0583    0.3057 C   0  0  0  0  0  0  0  0  0  0  0  0
    2.2716    0.0347   -0.7796 O   0  0  0  0  0  0  0  0  0  0  0  0
    3.8629    0.0780   -0.2297 P   0  0  0  0  0  5  0  0  0  0  0  0
    4.4933    1.3724   -0.6161 O   0  0  0  0  0  0  0  0  0  0  0  0
    4.6970   -1.2479   -0.9142 O   0  0  0  0  0  0  0  0  0  0  0  0
    3.8881   -0.0302    1.4666 O   0  0  0  0  0  0  0  0  0  0  0  0
   -0.9901    0.0373    0.7794 C   0  0  0  0  0  0  0  0  0  0  0  0
   -0.6460    0.0899    2.1692 C   0  0  0  0  0  0  0  0  0  0  0  0
   -1.4622    0.1085    3.0874 O   0  0  0  0  0  0  0  0  0  0  0  0
   -2.2880    0.0017    0.3240 C   0  0  0  0  0  0  0  0  0  0  0  0
   -3.3923    0.0123    1.1393 O   0  0  0  0  0  0  0  0  0  0  0  0
   -4.2063   -1.1319   -1.7581 H   0  0  0  0  0  0  0  0  0  0  0  0
   -4.6273    0.2887   -0.6931 H   0  0  0  0  0  0  0  0  0  0  0  0
   -4.0688    0.5968   -2.3560 H   0  0  0  0  0  0  0  0  0  0  0  0
    0.5622   -0.0411   -2.2310 H   0  0  0  0  0  0  0  0  0  0  0  0
    1.5153    1.0299    0.8702 H   0  0  0  0  0  0  0  0  0  0  0  0
    1.6200   -0.7702    1.0028 H   0  0  0  0  0  0  0  0  0  0  0  0
    5.2038   -0.9459   -1.7061 H   0  0  0  0  0  0  0  0  0  0  0  0
    3.5131   -0.8871    1.7851 H   0  0  0  0  0  0  0  0  0  0  0  0
    0.4041    0.1163    2.4682 H   0  0  0  0  0  0  0  0  0  0  0  0
   -3.4218    0.0452    2.1204 H   0  0  0  0  0  0  0  0  0  0  0  0
  1  2  1  0
  2  3  2  0
  3  4  1  0
  4  5  2  0
  5  6  1  0
  6  7  1  0
  7  8  1  0
  8  9  2  0
  8 10  1  0
  8 11  1  0
  5 12  1  0
 12 13  1  0
 13 14  2  0
 12 15  2  0
 15 16  1  0
 15  2  1  0
  1 17  1  0
  1 18  1  0
  1 19  1  0
  4 20  1  0
  6 21  1  0
  6 22  1  0
 10 23  1  0
 11 24  1  0
 13 25  1  0
 16 26  1  0
M  END
$$$$

     RDKit          3D

 26 26  0  0  0  0  0  0  0  0999 V2000
    4.1098   -1.2546   -0.3108 C   0  0  0  0  0  0  0  0  0  0  0  0
    2.6537   -0.9237   -0.2712 C   0  0  0  0  0  0  0  0  0  0  0  0
    1.7023   -1.8077   -0.5260 N   0  0  0  0  0  0  0  0  0  0  0  0
    0.3766   -1.4877   -0.4852 C   0  0  0  0  0  0  0  0  0  0  0  0
   -0.0318   -0.2210   -0.1746 C   0  0  0  0  0  0  0  0  0  0  0  0
   -1.4427    0.1465   -0.1242 C   0  0  0  0  0  0  0  0  0  0  0  0
   -2.3122   -0.8797   -0.4128 O   0  0  0  0  0  0  0  0  0  0  0  0
   -3.8889   -0.2230   -0.2937 P   0  0  0  0  0  5  0  0  0  0  0  0
   -4.2221    0.3747   -1.6467 O   0  0  0  0  0  0  0  0  0  0  0  0
   -5.0159   -1.4198    0.0763 O   0  0  0  0  0  0  0  0  0  0  0  0
   -3.8829    0.9851    0.8724 O   0  0  0  0  0  0  0  0  0  0  0  0
    0.9503    0.7326    0.0990 C   0  0  0  0  0  0  0  0  0  0  0  0
    0.4726    2.0523    0.4211 C   0  0  0  0  0  0  0  0  0  0  0  0
    1.2075    3.0105    0.6883 O   0  0  0  0  0  0  0  0  0  0  0  0
    2.2953    0.3859    0.0520 C   0  0  0  0  0  0  0  0  0  0  0  0
    3.2934    1.2954    0.3147 O   0  0  0  0  0  0  0  0  0  0  0  0
    4.4694   -1.2555   -1.3464 H   0  0  0  0  0  0  0  0  0  0  0  0
    4.6509   -0.5523    0.3203 H   0  0  0  0  0  0  0  0  0  0  0  0
    4.1872   -2.2827    0.1443 H   0  0  0  0  0  0  0  0  0  0  0  0
   -0.3609   -2.2455   -0.7013 H   0  0  0  0  0  0  0  0  0  0  0  0
   -1.7546    0.5498    0.8802 H   0  0  0  0  0  0  0  0  0  0  0  0
   -1.6930    0.9822   -0.8327 H   0  0  0  0  0  0  0  0  0  0  0  0
   -4.8686   -2.2527   -0.3987 H   0  0  0  0  0  0  0  0  0  0  0  0
   -3.4510    1.8088    0.5095 H   0  0  0  0  0  0  0  0  0  0  0  0
   -0.5878    2.2591    0.4412 H   0  0  0  0  0  0  0  0  0  0  0  0
    3.1435    2.2230    0.5468 H   0  0  0  0  0  0  0  0  0  0  0  0
  1  2  1  0
  2  3  2  0
  3  4  1  0
  4  5  2  0
  5  6  1  0
  6  7  1  0
  7  8  1  0
  8  9  2  0
  8 10  1  0
  8 11  1  0
  5 12  1  0
 12 13  1  0
 13 14  2  0
 12 15  2  0
 15 16  1  0
 15  2  1  0
  1 17  1  0
  1 18  1  0
  1 19  1  0
  4 20  1  0
  6 21  1  0
  6 22  1  0
 10 23  1  0
 11 24  1  0
 13 25  1  0
 16 26  1  0
M  END
$$$$

     RDKit          3D

 26 26  0  0  0  0  0  0  0  0999 V2000
   -3.3574    1.8597    0.2375 C   0  0  0  0  0  0  0  0  0  0  0  0
   -2.1538    1.0067    0.0903 C   0  0  0  0  0  0  0  0  0  0  0  0
   -1.1143    1.4601   -0.5954 N   0  0  0  0  0  0  0  0  0  0  0  0
    0.0160    0.7421   -0.7718 C   0  0  0  0  0  0  0  0  0  0  0  0
    0.1136   -0.5154   -0.2237 C   0  0  0  0  0  0  0  0  0  0  0  0
    1.3195   -1.3286   -0.4080 C   0  0  0  0  0  0  0  0  0  0  0  0
    2.3672   -0.7597   -1.0868 O   0  0  0  0  0  0  0  0  0  0  0  0
    3.1040    0.5420   -0.3539 P   0  0  0  0  0  5  0  0  0  0  0  0
    2.3464    1.1108    0.8109 O   0  0  0  0  0  0  0  0  0  0  0  0
    4.6631    0.0811    0.2141 O   0  0  0  0  0  0  0  0  0  0  0  0
    3.4113    1.7463   -1.4997 O   0  0  0  0  0  0  0  0  0  0  0  0
   -0.9738   -1.0178    0.5045 C   0  0  0  0  0  0  0  0  0  0  0  0
   -0.9293   -2.3295    1.0774 C   0  0  0  0  0  0  0  0  0  0  0  0
    0.0698   -3.0622    0.9591 O   0  0  0  0  0  0  0  0  0  0  0  0
   -2.0993   -0.2472    0.6540 C   0  0  0  0  0  0  0  0  0  0  0  0
   -3.1958   -0.6706    1.3507 O   0  0  0  0  0  0  0  0  0  0  0  0
   -4.2842    1.2698    0.0705 H   0  0  0  0  0  0  0  0  0  0  0  0
   -3.3046    2.7216   -0.4589 H   0  0  0  0  0  0  0  0  0  0  0  0
   -3.3997    2.2564    1.2903 H   0  0  0  0  0  0  0  0  0  0  0  0
    0.7946    1.1721   -1.3620 H   0  0  0  0  0  0  0  0  0  0  0  0
    1.1182   -2.3069   -0.9218 H   0  0  0  0  0  0  0  0  0  0  0  0
    1.6725   -1.6375    0.6354 H   0  0  0  0  0  0  0  0  0  0  0  0
    5.1867    0.9226    0.3260 H   0  0  0  0  0  0  0  0  0  0  0  0
    3.6524    1.2676   -2.3541 H   0  0  0  0  0  0  0  0  0  0  0  0
   -1.7635   -2.7319    1.6345 H   0  0  0  0  0  0  0  0  0  0  0  0
   -3.2595   -1.5515    1.7939 H   0  0  0  0  0  0  0  0  0  0  0  0
  1  2  1  0
  2  3  2  0
  3  4  1  0
  4  5  2  0
  5  6  1  0
  6  7  1  0
  7  8  1  0
  8  9  2  0
  8 10  1  0
  8 11  1  0
  5 12  1  0
 12 13  1  0
 13 14  2  0
 12 15  2  0
 15 16  1  0
 15  2  1  0
  1 17  1  0
  1 18  1  0
  1 19  1  0
  4 20  1  0
  6 21  1  0
  6 22  1  0
 10 23  1  0
 11 24  1  0
 13 25  1  0
 16 26  1  0
M  END
$$$$

     RDKit          3D

 26 26  0  0  0  0  0  0  0  0999 V2000
   -3.1050    2.0014    0.9379 C   0  0  0  0  0  0  0  0  0  0  0  0
   -1.9794    1.1846    0.4048 C   0  0  0  0  0  0  0  0  0  0  0  0
   -0.8507    1.7717    0.0581 N   0  0  0  0  0  0  0  0  0  0  0  0
    0.1710    1.0351   -0.4245 C   0  0  0  0  0  0  0  0  0  0  0  0
    0.1236   -0.3277   -0.5861 C   0  0  0  0  0  0  0  0  0  0  0  0
    1.2335   -1.1312   -1.1332 C   0  0  0  0  0  0  0  0  0  0  0  0
    2.3726   -0.3884   -1.3783 O   0  0  0  0  0  0  0  0  0  0  0  0
    3.1386    0.2379   -0.0399 P   0  0  0  0  0  5  0  0  0  0  0  0
    2.2874    0.1709    1.2118 O   0  0  0  0  0  0  0  0  0  0  0  0
    3.7010    1.8003   -0.1941 O   0  0  0  0  0  0  0  0  0  0  0  0
    4.5493   -0.7286    0.1911 O   0  0  0  0  0  0  0  0  0  0  0  0
   -1.0632   -0.9868   -0.2296 C   0  0  0  0  0  0  0  0  0  0  0  0
   -1.1868   -2.4130   -0.3908 C   0  0  0  0  0  0  0  0  0  0  0  0
   -0.2634   -3.1182   -0.8394 O   0  0  0  0  0  0  0  0  0  0  0  0
   -2.0870   -0.2041    0.2597 C   0  0  0  0  0  0  0  0  0  0  0  0
   -3.2732   -0.7820    0.6285 O   0  0  0  0  0  0  0  0  0  0  0  0
   -3.5433    2.5583    0.0698 H   0  0  0  0  0  0  0  0  0  0  0  0
   -3.8828    1.3677    1.3787 H   0  0  0  0  0  0  0  0  0  0  0  0
   -2.7131    2.7046    1.7074 H   0  0  0  0  0  0  0  0  0  0  0  0
    1.0828    1.5550   -0.7418 H   0  0  0  0  0  0  0  0  0  0  0  0
    0.9149   -1.5806   -2.0946 H   0  0  0  0  0  0  0  0  0  0  0  0
    1.5233   -1.9387   -0.3717 H   0  0  0  0  0  0  0  0  0  0  0  0
    3.3861    2.2807   -0.9898 H   0  0  0  0  0  0  0  0  0  0  0  0
    5.1493   -0.4702   -0.5667 H   0  0  0  0  0  0  0  0  0  0  0  0
   -2.1330   -2.8782   -0.1041 H   0  0  0  0  0  0  0  0  0  0  0  0
   -3.5526   -1.7205    0.6090 H   0  0  0  0  0  0  0  0  0  0  0  0
  1  2  1  0
  2  3  2  0
  3  4  1  0
  4  5  2  0
  5  6  1  0
  6  7  1  0
  7  8  1  0
  8  9  2  0
  8 10  1  0
  8 11  1  0
  5 12  1  0
 12 13  1  0
 13 14  2  0
 12 15  2  0
 15 16  1  0
 15  2  1  0
  1 17  1  0
  1 18  1  0
  1 19  1  0
  4 20  1  0
  6 21  1  0
  6 22  1  0
 10 23  1  0
 11 24  1  0
 13 25  1  0
 16 26  1  0
M  END
$$$$

     RDKit          3D

 26 26  0  0  0  0  0  0  0  0999 V2000
   -3.1089    2.3387   -0.1052 C   0  0  0  0  0  0  0  0  0  0  0  0
   -1.9505    1.3916   -0.1863 C   0  0  0  0  0  0  0  0  0  0  0  0
   -0.7202    1.7941   -0.4949 N   0  0  0  0  0  0  0  0  0  0  0  0
    0.3082    0.9246   -0.5619 C   0  0  0  0  0  0  0  0  0  0  0  0
    0.1568   -0.4163   -0.3186 C   0  0  0  0  0  0  0  0  0  0  0  0
    1.2454   -1.3880   -0.3902 C   0  0  0  0  0  0  0  0  0  0  0  0
    2.4968   -0.9366   -0.6763 O   0  0  0  0  0  0  0  0  0  0  0  0
    3.1962    0.0946    0.4263 P   0  0  0  0  0  5  0  0  0  0  0  0
    2.2465    0.5337    1.5350 O   0  0  0  0  0  0  0  0  0  0  0  0
    3.9209    1.4119   -0.3467 O   0  0  0  0  0  0  0  0  0  0  0  0
    4.4800   -0.6932    1.2521 O   0  0  0  0  0  0  0  0  0  0  0  0
   -1.1214   -0.8988    0.0108 C   0  0  0  0  0  0  0  0  0  0  0  0
   -1.2948   -2.3211    0.2577 C   0  0  0  0  0  0  0  0  0  0  0  0
   -2.3707   -2.8905    0.5537 O   0  0  0  0  0  0  0  0  0  0  0  0
   -2.1381    0.0263    0.0668 C   0  0  0  0  0  0  0  0  0  0  0  0
   -3.4151   -0.3413    0.3788 O   0  0  0  0  0  0  0  0  0  0  0  0
   -2.9650    3.2245   -0.7181 H   0  0  0  0  0  0  0  0  0  0  0  0
   -3.2378    2.5791    0.9695 H   0  0  0  0  0  0  0  0  0  0  0  0
   -3.9997    1.7295   -0.4154 H   0  0  0  0  0  0  0  0  0  0  0  0
    1.2668    1.3452   -0.8403 H   0  0  0  0  0  0  0  0  0  0  0  0
    0.9719   -2.1544   -1.1558 H   0  0  0  0  0  0  0  0  0  0  0  0
    1.2309   -1.9707    0.5849 H   0  0  0  0  0  0  0  0  0  0  0  0
    3.6610    1.4486   -1.3137 H   0  0  0  0  0  0  0  0  0  0  0  0
    5.3160   -0.6524    0.7213 H   0  0  0  0  0  0  0  0  0  0  0  0
   -0.4126   -2.9592    0.1796 H   0  0  0  0  0  0  0  0  0  0  0  0
   -3.7625   -1.2198    0.5870 H   0  0  0  0  0  0  0  0  0  0  0  0
  1  2  1  0
  2  3  2  0
  3  4  1  0
  4  5  2  0
  5  6  1  0
  6  7  1  0
  7  8  1  0
  8  9  2  0
  8 10  1  0
  8 11  1  0
  5 12  1  0
 12 13  1  0
 13 14  2  0
 12 15  2  0
 15 16  1  0
 15  2  1  0
  1 17  1  0
  1 18  1  0
  1 19  1  0
  4 20  1  0
  6 21  1  0
  6 22  1  0
 10 23  1  0
 11 24  1  0
 13 25  1  0
 16 26  1  0
M  END
$$$$

     RDKit          3D

 26 26  0  0  0  0  0  0  0  0999 V2000
   -4.1883    1.0450   -0.2883 C   0  0  0  0  0  0  0  0  0  0  0  0
   -2.7648    0.6842   -0.4181 C   0  0  0  0  0  0  0  0  0  0  0  0
   -1.9244    1.2532   -1.3264 N   0  0  0  0  0  0  0  0  0  0  0  0
   -0.5739    0.9278   -1.3403 C   0  0  0  0  0  0  0  0  0  0  0  0
   -0.0120    0.0326   -0.4651 C   0  0  0  0  0  0  0  0  0  0  0  0
    1.3922   -0.0398   -0.2105 C   0  0  0  0  0  0  0  0  0  0  0  0
    2.3539   -0.7859   -0.7462 O   0  0  0  0  0  0  0  0  0  0  0  0
    3.8152   -0.2834    0.1040 P   0  0  0  0  0  5  0  0  0  0  0  0
    4.1041    1.2049   -0.2406 O   0  0  0  0  0  0  0  0  0  0  0  0
    5.0680   -1.2504   -0.3628 O   0  0  0  0  0  0  0  0  0  0  0  0
    3.4923   -0.3448    1.7550 O   0  0  0  0  0  0  0  0  0  0  0  0
   -0.8650   -0.5595    0.4427 C   0  0  0  0  0  0  0  0  0  0  0  0
   -0.3120   -1.5653    1.3281 C   0  0  0  0  0  0  0  0  0  0  0  0
    0.8411   -1.9002    1.3071 O   0  0  0  0  0  0  0  0  0  0  0  0
   -2.2403   -0.2182    0.4499 C   0  0  0  0  0  0  0  0  0  0  0  0
   -3.0745   -0.8703    1.4044 O   0  0  0  0  0  0  0  0  0  0  0  0
   -4.5503    1.0526    0.7782 H   0  0  0  0  0  0  0  0  0  0  0  0
   -4.8679    0.3704   -0.8467 H   0  0  0  0  0  0  0  0  0  0  0  0
   -4.3312    2.1257   -0.6486 H   0  0  0  0  0  0  0  0  0  0  0  0
    0.0166    1.4373   -2.0827 H   0  0  0  0  0  0  0  0  0  0  0  0
    1.6472    0.4523    0.8173 H   0  0  0  0  0  0  0  0  0  0  0  0
    1.7371    1.0335   -0.8627 H   0  0  0  0  0  0  0  0  0  0  0  0
    5.8656   -0.8539    0.1094 H   0  0  0  0  0  0  0  0  0  0  0  0
    4.3701   -0.2653    2.2143 H   0  0  0  0  0  0  0  0  0  0  0  0
   -0.9846   -2.0479    2.0515 H   0  0  0  0  0  0  0  0  0  0  0  0
   -4.0139   -0.6345    1.4312 H   0  0  0  0  0  0  0  0  0  0  0  0
  1  2  1  0
  2  3  2  0
  3  4  1  0
  4  5  2  0
  5  6  1  0
  6  7  1  0
  7  8  1  0
  8  9  2  0
  8 10  1  0
  8 11  1  0
  5 12  1  0
 12 13  1  0
 13 14  2  0
 12 15  2  0
 15 16  1  0
 15  2  1  0
  1 17  1  0
  1 18  1  0
  1 19  1  0
  4 20  1  0
  6 21  1  0
  6 22  1  0
 10 23  1  0
 11 24  1  0
 13 25  1  0
 16 26  1  0
M  END
$$$$

     RDKit          3D

 26 26  0  0  0  0  0  0  0  0999 V2000
    4.1577   -0.8092   -0.1287 C   0  0  0  0  0  0  0  0  0  0  0  0
    2.6845   -0.6057   -0.1073 C   0  0  0  0  0  0  0  0  0  0  0  0
    1.8312   -1.6135   -0.3442 N   0  0  0  0  0  0  0  0  0  0  0  0
    0.4900   -1.4649   -0.3328 C   0  0  0  0  0  0  0  0  0  0  0  0
   -0.0646   -0.2309   -0.0683 C   0  0  0  0  0  0  0  0  0  0  0  0
   -1.5232    0.0314   -0.0336 C   0  0  0  0  0  0  0  0  0  0  0  0
   -2.2806   -1.0826   -0.2925 O   0  0  0  0  0  0  0  0  0  0  0  0
   -3.9111   -0.6396   -0.2205 P   0  0  0  0  0  5  0  0  0  0  0  0
   -4.5855   -1.2692    0.9769 O   0  0  0  0  0  0  0  0  0  0  0  0
   -4.0886    1.0394   -0.2121 O   0  0  0  0  0  0  0  0  0  0  0  0
   -4.7469   -1.2116   -1.5956 O   0  0  0  0  0  0  0  0  0  0  0  0
    0.7925    0.8205    0.1783 C   0  0  0  0  0  0  0  0  0  0  0  0
    0.3052    2.1628    0.4678 C   0  0  0  0  0  0  0  0  0  0  0  0
    1.0553    3.1208    0.6920 O   0  0  0  0  0  0  0  0  0  0  0  0
    2.1778    0.6450    0.1616 C   0  0  0  0  0  0  0  0  0  0  0  0
    3.0372    1.6988    0.4088 O   0  0  0  0  0  0  0  0  0  0  0  0
    4.3992   -1.8818   -0.2732 H   0  0  0  0  0  0  0  0  0  0  0  0
    4.6711   -0.3657    0.7315 H   0  0  0  0  0  0  0  0  0  0  0  0
    4.5258   -0.2520   -1.0375 H   0  0  0  0  0  0  0  0  0  0  0  0
   -0.1798   -2.3170   -0.5323 H   0  0  0  0  0  0  0  0  0  0  0  0
   -1.7307    0.8117   -0.7946 H   0  0  0  0  0  0  0  0  0  0  0  0
   -1.7613    0.3736    0.9956 H   0  0  0  0  0  0  0  0  0  0  0  0
   -3.6906    1.3895   -1.0384 H   0  0  0  0  0  0  0  0  0  0  0  0
   -4.8292   -2.1958   -1.4699 H   0  0  0  0  0  0  0  0  0  0  0  0
   -0.7658    2.3051    0.4821 H   0  0  0  0  0  0  0  0  0  0  0  0
    4.0304    1.5410    0.3898 H   0  0  0  0  0  0  0  0  0  0  0  0
  1  2  1  0
  2  3  2  0
  3  4  1  0
  4  5  2  0
  5  6  1  0
  6  7  1  0
  7  8  1  0
  8  9  2  0
  8 10  1  0
  8 11  1  0
  5 12  1  0
 12 13  1  0
 13 14  2  0
 12 15  2  0
 15 16  1  0
 15  2  1  0
  1 17  1  0
  1 18  1  0
  1 19  1  0
  4 20  1  0
  6 21  1  0
  6 22  1  0
 10 23  1  0
 11 24  1  0
 13 25  1  0
 16 26  1  0
M  END
$$$$

     RDKit          3D

 26 26  0  0  0  0  0  0  0  0999 V2000
    3.2124    1.8765    0.2123 C   0  0  0  0  0  0  0  0  0  0  0  0
    2.0461    0.9760    0.0599 C   0  0  0  0  0  0  0  0  0  0  0  0
    1.1410    1.2707   -0.8905 N   0  0  0  0  0  0  0  0  0  0  0  0
    0.0428    0.4763   -1.0780 C   0  0  0  0  0  0  0  0  0  0  0  0
   -0.1744   -0.6405   -0.3084 C   0  0  0  0  0  0  0  0  0  0  0  0
   -1.2949   -1.5886   -0.4549 C   0  0  0  0  0  0  0  0  0  0  0  0
   -2.2283   -1.1862   -1.3751 O   0  0  0  0  0  0  0  0  0  0  0  0
   -3.0771    0.2026   -0.9768 P   0  0  0  0  0  5  0  0  0  0  0  0
   -3.2812    1.0612   -2.2042 O   0  0  0  0  0  0  0  0  0  0  0  0
   -2.2984    1.1293    0.1952 O   0  0  0  0  0  0  0  0  0  0  0  0
   -4.5993   -0.3247   -0.3947 O   0  0  0  0  0  0  0  0  0  0  0  0
    0.7872   -0.9098    0.6635 C   0  0  0  0  0  0  0  0  0  0  0  0
    0.5920   -2.0878    1.4980 C   0  0  0  0  0  0  0  0  0  0  0  0
    1.4502   -2.3446    2.3789 O   0  0  0  0  0  0  0  0  0  0  0  0
    1.8977   -0.1276    0.8696 C   0  0  0  0  0  0  0  0  0  0  0  0
    2.8281   -0.4307    1.8456 O   0  0  0  0  0  0  0  0  0  0  0  0
    4.1235    1.4546   -0.2228 H   0  0  0  0  0  0  0  0  0  0  0  0
    2.9938    2.8741   -0.2507 H   0  0  0  0  0  0  0  0  0  0  0  0
    3.3856    2.1094    1.3001 H   0  0  0  0  0  0  0  0  0  0  0  0
   -0.6600    0.7288   -1.8820 H   0  0  0  0  0  0  0  0  0  0  0  0
   -1.7827   -1.7624    0.5497 H   0  0  0  0  0  0  0  0  0  0  0  0
   -0.8830   -2.5670   -0.8350 H   0  0  0  0  0  0  0  0  0  0  0  0
   -2.3017    2.0647   -0.1096 H   0  0  0  0  0  0  0  0  0  0  0  0
   -5.3045    0.3191   -0.6034 H   0  0  0  0  0  0  0  0  0  0  0  0
   -0.2382   -2.7592    1.4157 H   0  0  0  0  0  0  0  0  0  0  0  0
    3.6233    0.1856    1.9455 H   0  0  0  0  0  0  0  0  0  0  0  0
  1  2  1  0
  2  3  2  0
  3  4  1  0
  4  5  2  0
  5  6  1  0
  6  7  1  0
  7  8  1  0
  8  9  2  0
  8 10  1  0
  8 11  1  0
  5 12  1  0
 12 13  1  0
 13 14  2  0
 12 15  2  0
 15 16  1  0
 15  2  1  0
  1 17  1  0
  1 18  1  0
  1 19  1  0
  4 20  1  0
  6 21  1  0
  6 22  1  0
 10 23  1  0
 11 24  1  0
 13 25  1  0
 16 26  1  0
M  END
$$$$

     RDKit          3D

 26 26  0  0  0  0  0  0  0  0999 V2000
   -3.3503    1.7593    0.0004 C   0  0  0  0  0  0  0  0  0  0  0  0
   -2.0789    0.9659   -0.1471 C   0  0  0  0  0  0  0  0  0  0  0  0
   -1.0920    1.3949   -0.9492 N   0  0  0  0  0  0  0  0  0  0  0  0
    0.0484    0.6478   -1.0579 C   0  0  0  0  0  0  0  0  0  0  0  0
    0.1899   -0.5259   -0.3578 C   0  0  0  0  0  0  0  0  0  0  0  0
    1.3556   -1.4080   -0.4436 C   0  0  0  0  0  0  0  0  0  0  0  0
    2.3828   -0.9024   -1.2019 O   0  0  0  0  0  0  0  0  0  0  0  0
    3.1070    0.4536   -0.5561 P   0  0  0  0  0  5  0  0  0  0  0  0
    2.2610    1.0843    0.5165 O   0  0  0  0  0  0  0  0  0  0  0  0
    4.5828   -0.0942    0.1477 O   0  0  0  0  0  0  0  0  0  0  0  0
    3.4298    1.5834   -1.7512 O   0  0  0  0  0  0  0  0  0  0  0  0
   -0.8679   -0.9427    0.4721 C   0  0  0  0  0  0  0  0  0  0  0  0
   -0.6983   -2.1885    1.1933 C   0  0  0  0  0  0  0  0  0  0  0  0
   -1.6375   -2.5731    1.9349 O   0  0  0  0  0  0  0  0  0  0  0  0
   -2.0000   -0.1903    0.5723 C   0  0  0  0  0  0  0  0  0  0  0  0
   -3.0089   -0.6523    1.4068 O   0  0  0  0  0  0  0  0  0  0  0  0
   -3.3238    2.5706   -0.7584 H   0  0  0  0  0  0  0  0  0  0  0  0
   -3.3569    2.1633    1.0189 H   0  0  0  0  0  0  0  0  0  0  0  0
   -4.2339    1.0915   -0.1506 H   0  0  0  0  0  0  0  0  0  0  0  0
    0.8356    0.9789   -1.7335 H   0  0  0  0  0  0  0  0  0  0  0  0
    1.6965   -1.6460    0.6004 H   0  0  0  0  0  0  0  0  0  0  0  0
    1.0007   -2.3858   -0.8831 H   0  0  0  0  0  0  0  0  0  0  0  0
    4.3043   -0.5391    0.9925 H   0  0  0  0  0  0  0  0  0  0  0  0
    4.1235    2.2469   -1.4763 H   0  0  0  0  0  0  0  0  0  0  0  0
    0.1740   -2.8098    1.1402 H   0  0  0  0  0  0  0  0  0  0  0  0
   -3.8432   -0.0824    1.4706 H   0  0  0  0  0  0  0  0  0  0  0  0
  1  2  1  0
  2  3  2  0
  3  4  1  0
  4  5  2  0
  5  6  1  0
  6  7  1  0
  7  8  1  0
  8  9  2  0
  8 10  1  0
  8 11  1  0
  5 12  1  0
 12 13  1  0
 13 14  2  0
 12 15  2  0
 15 16  1  0
 15  2  1  0
  1 17  1  0
  1 18  1  0
  1 19  1  0
  4 20  1  0
  6 21  1  0
  6 22  1  0
 10 23  1  0
 11 24  1  0
 13 25  1  0
 16 26  1  0
M  END
$$$$

     RDKit          3D

 26 26  0  0  0  0  0  0  0  0999 V2000
   -3.1512   -2.0926   -0.8837 C   0  0  0  0  0  0  0  0  0  0  0  0
   -1.9706   -1.1967   -0.7285 C   0  0  0  0  0  0  0  0  0  0  0  0
   -0.8302   -1.3689   -1.3658 N   0  0  0  0  0  0  0  0  0  0  0  0
    0.2304   -0.5258   -1.1948 C   0  0  0  0  0  0  0  0  0  0  0  0
    0.1653    0.5445   -0.3493 C   0  0  0  0  0  0  0  0  0  0  0  0
    1.2622    1.4997   -0.1475 C   0  0  0  0  0  0  0  0  0  0  0  0
    2.4379    1.2397   -0.7772 O   0  0  0  0  0  0  0  0  0  0  0  0
    3.1432   -0.1584   -0.1511 P   0  0  0  0  0  5  0  0  0  0  0  0
    2.1426   -0.8701    0.7252 O   0  0  0  0  0  0  0  0  0  0  0  0
    4.4469    0.3999    0.8274 O   0  0  0  0  0  0  0  0  0  0  0  0
    3.7055   -1.2202   -1.3155 O   0  0  0  0  0  0  0  0  0  0  0  0
   -1.0355    0.7726    0.3552 C   0  0  0  0  0  0  0  0  0  0  0  0
   -1.0905    1.9231    1.2398 C   0  0  0  0  0  0  0  0  0  0  0  0
   -2.1151    2.1941    1.8916 O   0  0  0  0  0  0  0  0  0  0  0  0
   -2.0913   -0.1028    0.1573 C   0  0  0  0  0  0  0  0  0  0  0  0
   -3.2930    0.0288    0.7903 O   0  0  0  0  0  0  0  0  0  0  0  0
   -3.7690   -2.1276    0.0482 H   0  0  0  0  0  0  0  0  0  0  0  0
   -2.8558   -3.1367   -1.0886 H   0  0  0  0  0  0  0  0  0  0  0  0
   -3.7747   -1.6448   -1.6854 H   0  0  0  0  0  0  0  0  0  0  0  0
    1.1363   -0.6886   -1.7593 H   0  0  0  0  0  0  0  0  0  0  0  0
    0.9249    2.5343   -0.4616 H   0  0  0  0  0  0  0  0  0  0  0  0
    1.4333    1.6529    0.9765 H   0  0  0  0  0  0  0  0  0  0  0  0
    4.1306    0.5938    1.7383 H   0  0  0  0  0  0  0  0  0  0  0  0
    4.6163   -1.5509   -1.0645 H   0  0  0  0  0  0  0  0  0  0  0  0
   -0.2433    2.5890    1.3650 H   0  0  0  0  0  0  0  0  0  0  0  0
   -3.5554    0.7114    1.4272 H   0  0  0  0  0  0  0  0  0  0  0  0
  1  2  1  0
  2  3  2  0
  3  4  1  0
  4  5  2  0
  5  6  1  0
  6  7  1  0
  7  8  1  0
  8  9  2  0
  8 10  1  0
  8 11  1  0
  5 12  1  0
 12 13  1  0
 13 14  2  0
 12 15  2  0
 15 16  1  0
 15  2  1  0
  1 17  1  0
  1 18  1  0
  1 19  1  0
  4 20  1  0
  6 21  1  0
  6 22  1  0
 10 23  1  0
 11 24  1  0
 13 25  1  0
 16 26  1  0
M  END
$$$$

     RDKit          3D

 26 26  0  0  0  0  0  0  0  0999 V2000
   -4.2060    0.3393   -0.0131 C   0  0  0  0  0  0  0  0  0  0  0  0
   -2.6867    0.4592   -0.0908 C   0  0  0  0  0  0  0  0  0  0  0  0
   -2.0619    1.6254   -0.2455 N   0  0  0  0  0  0  0  0  0  0  0  0
   -0.7032    1.7028   -0.2672 C   0  0  0  0  0  0  0  0  0  0  0  0
    0.0087    0.5549   -0.1114 C   0  0  0  0  0  0  0  0  0  0  0  0
    1.4528    0.5086    0.1513 C   0  0  0  0  0  0  0  0  0  0  0  0
    2.3081    0.5636   -0.8926 O   0  0  0  0  0  0  0  0  0  0  0  0
    3.8822    0.2660   -0.2766 P   0  0  0  0  0  5  0  0  0  0  0  0
    4.8086    0.1284   -1.4229 O   0  0  0  0  0  0  0  0  0  0  0  0
    3.8069   -1.1080    0.6796 O   0  0  0  0  0  0  0  0  0  0  0  0
    4.3024    1.5652    0.6979 O   0  0  0  0  0  0  0  0  0  0  0  0
   -0.6381   -0.6570    0.0530 C   0  0  0  0  0  0  0  0  0  0  0  0
    0.1155   -1.9433    0.2186 C   0  0  0  0  0  0  0  0  0  0  0  0
   -0.3707   -2.9922    0.3717 O   0  0  0  0  0  0  0  0  0  0  0  0
   -1.9986   -0.7700    0.0640 C   0  0  0  0  0  0  0  0  0  0  0  0
   -2.6139   -1.9948    0.2315 O   0  0  0  0  0  0  0  0  0  0  0  0
   -4.3915    0.1232    1.0796 H   0  0  0  0  0  0  0  0  0  0  0  0
   -4.6602    1.2704   -0.3161 H   0  0  0  0  0  0  0  0  0  0  0  0
   -4.5916   -0.4636   -0.6036 H   0  0  0  0  0  0  0  0  0  0  0  0
   -0.2300    2.7216   -0.3767 H   0  0  0  0  0  0  0  0  0  0  0  0
    1.7528   -0.0681    1.0194 H   0  0  0  0  0  0  0  0  0  0  0  0
    1.6734    1.6380    0.6173 H   0  0  0  0  0  0  0  0  0  0  0  0
    3.6805   -1.9241    0.1559 H   0  0  0  0  0  0  0  0  0  0  0  0
    3.7541    2.3451    0.3960 H   0  0  0  0  0  0  0  0  0  0  0  0
    1.2531   -1.7557    0.1576 H   0  0  0  0  0  0  0  0  0  0  0  0
   -3.6468   -2.1347    0.2931 H   0  0  0  0  0  0  0  0  0  0  0  0
  1  2  1  0
  2  3  2  0
  3  4  1  0
  4  5  2  0
  5  6  1  0
  6  7  1  0
  7  8  1  0
  8  9  2  0
  8 10  1  0
  8 11  1  0
  5 12  1  0
 12 13  1  0
 13 14  2  0
 12 15  2  0
 15 16  1  0
 15  2  1  0
  1 17  1  0
  1 18  1  0
  1 19  1  0
  4 20  1  0
  6 21  1  0
  6 22  1  0
 10 23  1  0
 11 24  1  0
 13 25  1  0
 16 26  1  0
M  END
$$$$

     RDKit          3D

 26 26  0  0  0  0  0  0  0  0999 V2000
   -4.1736   -1.1112    0.5344 C   0  0  0  0  0  0  0  0  0  0  0  0
   -2.7346   -0.7510    0.5739 C   0  0  0  0  0  0  0  0  0  0  0  0
   -1.8699   -1.1343    1.4767 N   0  0  0  0  0  0  0  0  0  0  0  0
   -0.5256   -0.8559    1.4372 C   0  0  0  0  0  0  0  0  0  0  0  0
    0.0196   -0.1245    0.4026 C   0  0  0  0  0  0  0  0  0  0  0  0
    1.5069   -0.0442    0.1973 C   0  0  0  0  0  0  0  0  0  0  0  0
    2.1332    0.8194    1.0323 O   0  0  0  0  0  0  0  0  0  0  0  0
    3.7458    0.9977    0.7985 P   0  0  0  0  0  5  0  0  0  0  0  0
    4.2459    2.1121    1.7231 O   0  0  0  0  0  0  0  0  0  0  0  0
    4.0632    1.6580   -0.8019 O   0  0  0  0  0  0  0  0  0  0  0  0
    4.6891   -0.3811    0.9662 O   0  0  0  0  0  0  0  0  0  0  0  0
   -0.8491    0.3019   -0.5733 C   0  0  0  0  0  0  0  0  0  0  0  0
   -0.3807    1.1640   -1.6834 C   0  0  0  0  0  0  0  0  0  0  0  0
    0.9225    1.3806   -1.7020 O   0  0  0  0  0  0  0  0  0  0  0  0
   -2.2008   -0.0001   -0.4823 C   0  0  0  0  0  0  0  0  0  0  0  0
   -3.0613    0.4637   -1.4923 O   0  0  0  0  0  0  0  0  0  0  0  0
   -4.8404   -0.2718    0.7292 H   0  0  0  0  0  0  0  0  0  0  0  0
   -4.3516   -1.9335    1.2450 H   0  0  0  0  0  0  0  0  0  0  0  0
   -4.4337   -1.5361   -0.4979 H   0  0  0  0  0  0  0  0  0  0  0  0
    0.1465   -1.2264    2.2027 H   0  0  0  0  0  0  0  0  0  0  0  0
    1.8965   -0.2550   -0.7748 H   0  0  0  0  0  0  0  0  0  0  0  0
    1.8376   -1.1577    0.6983 H   0  0  0  0  0  0  0  0  0  0  0  0
    4.8794    1.1936   -1.1763 H   0  0  0  0  0  0  0  0  0  0  0  0
    4.3129   -1.1804    0.5144 H   0  0  0  0  0  0  0  0  0  0  0  0
   -0.9640    1.5812   -2.4190 H   0  0  0  0  0  0  0  0  0  0  0  0
   -4.0137    0.2908   -1.5629 H   0  0  0  0  0  0  0  0  0  0  0  0
  1  2  1  0
  2  3  2  0
  3  4  1  0
  4  5  2  0
  5  6  1  0
  6  7  1  0
  7  8  1  0
  8  9  2  0
  8 10  1  0
  8 11  1  0
  5 12  1  0
 12 13  1  0
 13 14  2  0
 12 15  2  0
 15 16  1  0
 15  2  1  0
  1 17  1  0
  1 18  1  0
  1 19  1  0
  4 20  1  0
  6 21  1  0
  6 22  1  0
 10 23  1  0
 11 24  1  0
 13 25  1  0
 16 26  1  0
M  END
$$$$

     RDKit          3D

 26 26  0  0  0  0  0  0  0  0999 V2000
   -4.2460   -0.5860    0.2369 C   0  0  0  0  0  0  0  0  0  0  0  0
   -2.7319   -0.5214    0.1243 C   0  0  0  0  0  0  0  0  0  0  0  0
   -1.9551   -1.5874    0.2175 N   0  0  0  0  0  0  0  0  0  0  0  0
   -0.6498   -1.5092    0.0460 C   0  0  0  0  0  0  0  0  0  0  0  0
   -0.0058   -0.3113   -0.2442 C   0  0  0  0  0  0  0  0  0  0  0  0
    1.4021   -0.2598   -0.5436 C   0  0  0  0  0  0  0  0  0  0  0  0
    2.3020   -0.6014    0.5267 O   0  0  0  0  0  0  0  0  0  0  0  0
    3.8551   -0.3056   -0.0044 P   0  0  0  0  0  5  0  0  0  0  0  0
    3.8256   -0.2968   -1.5371 O   0  0  0  0  0  0  0  0  0  0  0  0
    4.7921   -1.6106    0.4558 O   0  0  0  0  0  0  0  0  0  0  0  0
    4.3956    1.2298    0.5034 O   0  0  0  0  0  0  0  0  0  0  0  0
   -0.7762    0.8237   -0.3556 C   0  0  0  0  0  0  0  0  0  0  0  0
   -0.0548    2.0651   -0.5250 C   0  0  0  0  0  0  0  0  0  0  0  0
   -0.9400    3.1504   -0.4362 O   0  0  0  0  0  0  0  0  0  0  0  0
   -2.1577    0.7172   -0.1671 C   0  0  0  0  0  0  0  0  0  0  0  0
   -2.9399    1.8682   -0.2881 O   0  0  0  0  0  0  0  0  0  0  0  0
   -4.5890    0.2856    0.8280 H   0  0  0  0  0  0  0  0  0  0  0  0
   -4.7061   -0.6003   -0.7297 H   0  0  0  0  0  0  0  0  0  0  0  0
   -4.5053   -1.4954    0.8418 H   0  0  0  0  0  0  0  0  0  0  0  0
   -0.0835   -2.4528    0.1663 H   0  0  0  0  0  0  0  0  0  0  0  0
    1.7686    0.4724   -1.2078 H   0  0  0  0  0  0  0  0  0  0  0  0
    1.5421   -1.3688   -1.1238 H   0  0  0  0  0  0  0  0  0  0  0  0
    4.1445   -2.3744    0.7401 H   0  0  0  0  0  0  0  0  0  0  0  0
    5.3692    1.1742    0.4934 H   0  0  0  0  0  0  0  0  0  0  0  0
    0.8910    2.2726   -0.6856 H   0  0  0  0  0  0  0  0  0  0  0  0
   -3.9466    1.8222   -0.1866 H   0  0  0  0  0  0  0  0  0  0  0  0
  1  2  1  0
  2  3  2  0
  3  4  1  0
  4  5  2  0
  5  6  1  0
  6  7  1  0
  7  8  1  0
  8  9  2  0
  8 10  1  0
  8 11  1  0
  5 12  1  0
 12 13  1  0
 13 14  2  0
 12 15  2  0
 15 16  1  0
 15  2  1  0
  1 17  1  0
  1 18  1  0
  1 19  1  0
  4 20  1  0
  6 21  1  0
  6 22  1  0
 10 23  1  0
 11 24  1  0
 13 25  1  0
 16 26  1  0
M  END
$$$$

     RDKit          3D

 26 26  0  0  0  0  0  0  0  0999 V2000
   -3.9580    1.4480    0.1473 C   0  0  0  0  0  0  0  0  0  0  0  0
   -2.5691    0.9227    0.1195 C   0  0  0  0  0  0  0  0  0  0  0  0
   -1.5314    1.7652    0.2436 N   0  0  0  0  0  0  0  0  0  0  0  0
   -0.2477    1.3680    0.2282 C   0  0  0  0  0  0  0  0  0  0  0  0
    0.0086    0.0176    0.0760 C   0  0  0  0  0  0  0  0  0  0  0  0
    1.4334   -0.4096    0.0609 C   0  0  0  0  0  0  0  0  0  0  0  0
    2.2872    0.6888    0.2102 O   0  0  0  0  0  0  0  0  0  0  0  0
    3.8980    0.2504    0.1983 P   0  0  0  0  0  5  0  0  0  0  0  0
    4.2457   -0.4802    1.4952 O   0  0  0  0  0  0  0  0  0  0  0  0
    4.2847   -0.7924   -1.0659 O   0  0  0  0  0  0  0  0  0  0  0  0
    4.8234    1.6610    0.0386 O   0  0  0  0  0  0  0  0  0  0  0  0
   -1.0153   -0.8980   -0.0563 C   0  0  0  0  0  0  0  0  0  0  0  0
   -0.7085   -2.3134   -0.2151 C   0  0  0  0  0  0  0  0  0  0  0  0
    0.4536   -2.7674   -0.2401 O   0  0  0  0  0  0  0  0  0  0  0  0
   -2.3189   -0.4468   -0.0351 C   0  0  0  0  0  0  0  0  0  0  0  0
   -3.4042   -1.3009   -0.1618 O   0  0  0  0  0  0  0  0  0  0  0  0
   -4.6788    0.6166    0.1889 H   0  0  0  0  0  0  0  0  0  0  0  0
   -4.1048    2.1879    0.9735 H   0  0  0  0  0  0  0  0  0  0  0  0
   -4.1961    2.0144   -0.7947 H   0  0  0  0  0  0  0  0  0  0  0  0
    0.5686    2.0952    0.3334 H   0  0  0  0  0  0  0  0  0  0  0  0
    1.6317   -1.1211    0.9146 H   0  0  0  0  0  0  0  0  0  0  0  0
    1.7356   -0.9193   -0.8527 H   0  0  0  0  0  0  0  0  0  0  0  0
    3.7728   -0.5925   -1.8949 H   0  0  0  0  0  0  0  0  0  0  0  0
    4.4705    2.3264    0.6842 H   0  0  0  0  0  0  0  0  0  0  0  0
   -1.5045   -3.0362   -0.3193 H   0  0  0  0  0  0  0  0  0  0  0  0
   -3.3764   -2.2843   -0.2765 H   0  0  0  0  0  0  0  0  0  0  0  0
  1  2  1  0
  2  3  2  0
  3  4  1  0
  4  5  2  0
  5  6  1  0
  6  7  1  0
  7  8  1  0
  8  9  2  0
  8 10  1  0
  8 11  1  0
  5 12  1  0
 12 13  1  0
 13 14  2  0
 12 15  2  0
 15 16  1  0
 15  2  1  0
  1 17  1  0
  1 18  1  0
  1 19  1  0
  4 20  1  0
  6 21  1  0
  6 22  1  0
 10 23  1  0
 11 24  1  0
 13 25  1  0
 16 26  1  0
M  END
$$$$

     RDKit          3D

 26 26  0  0  0  0  0  0  0  0999 V2000
   -2.7200    2.6311   -0.0250 C   0  0  0  0  0  0  0  0  0  0  0  0
   -1.7579    1.4817   -0.1211 C   0  0  0  0  0  0  0  0  0  0  0  0
   -0.8701    1.4244   -1.1214 N   0  0  0  0  0  0  0  0  0  0  0  0
   -0.0044    0.3638   -1.1840 C   0  0  0  0  0  0  0  0  0  0  0  0
   -0.0323   -0.6327   -0.2438 C   0  0  0  0  0  0  0  0  0  0  0  0
    0.8435   -1.8009   -0.2738 C   0  0  0  0  0  0  0  0  0  0  0  0
    1.7971   -1.8411   -1.2568 O   0  0  0  0  0  0  0  0  0  0  0  0
    2.9695   -0.6380   -1.1617 P   0  0  0  0  0  5  0  0  0  0  0  0
    3.3040   -0.0488   -2.5226 O   0  0  0  0  0  0  0  0  0  0  0  0
    2.5873    0.6073   -0.1142 O   0  0  0  0  0  0  0  0  0  0  0  0
    4.4045   -1.4322   -0.6673 O   0  0  0  0  0  0  0  0  0  0  0  0
   -0.9548   -0.5716    0.7926 C   0  0  0  0  0  0  0  0  0  0  0  0
   -1.0251   -1.5941    1.7971 C   0  0  0  0  0  0  0  0  0  0  0  0
   -1.8535   -1.5557    2.7379 O   0  0  0  0  0  0  0  0  0  0  0  0
   -1.8531    0.5040    0.8796 C   0  0  0  0  0  0  0  0  0  0  0  0
   -2.7588    0.6461    1.8231 O   0  0  0  0  0  0  0  0  0  0  0  0
   -3.0355    2.9119   -1.0597 H   0  0  0  0  0  0  0  0  0  0  0  0
   -2.1261    3.4839    0.3677 H   0  0  0  0  0  0  0  0  0  0  0  0
   -3.5589    2.4049    0.6355 H   0  0  0  0  0  0  0  0  0  0  0  0
    0.6869    0.3163   -2.0024 H   0  0  0  0  0  0  0  0  0  0  0  0
    1.3290   -1.9447    0.7450 H   0  0  0  0  0  0  0  0  0  0  0  0
    0.2604   -2.7655   -0.3784 H   0  0  0  0  0  0  0  0  0  0  0  0
    3.0190    0.5223    0.7746 H   0  0  0  0  0  0  0  0  0  0  0  0
    5.0801   -0.7886   -0.3751 H   0  0  0  0  0  0  0  0  0  0  0  0
   -0.3490   -2.4311    1.7553 H   0  0  0  0  0  0  0  0  0  0  0  0
   -3.3817    0.7472    2.4689 H   0  0  0  0  0  0  0  0  0  0  0  0
  1  2  1  0
  2  3  2  0
  3  4  1  0
  4  5  2  0
  5  6  1  0
  6  7  1  0
  7  8  1  0
  8  9  2  0
  8 10  1  0
  8 11  1  0
  5 12  1  0
 12 13  1  0
 13 14  2  0
 12 15  2  0
 15 16  1  0
 15  2  1  0
  1 17  1  0
  1 18  1  0
  1 19  1  0
  4 20  1  0
  6 21  1  0
  6 22  1  0
 10 23  1  0
 11 24  1  0
 13 25  1  0
 16 26  1  0
M  END
$$$$

     RDKit          3D

 26 26  0  0  0  0  0  0  0  0999 V2000
   -4.1574    0.9607    0.5679 C   0  0  0  0  0  0  0  0  0  0  0  0
   -2.7051    0.6865    0.4417 C   0  0  0  0  0  0  0  0  0  0  0  0
   -1.8001    1.6220    0.7376 N   0  0  0  0  0  0  0  0  0  0  0  0
   -0.4811    1.4008    0.6324 C   0  0  0  0  0  0  0  0  0  0  0  0
   -0.0876    0.1777    0.2092 C   0  0  0  0  0  0  0  0  0  0  0  0
    1.3745   -0.1292    0.0716 C   0  0  0  0  0  0  0  0  0  0  0  0
    2.0745    0.9893    0.4342 O   0  0  0  0  0  0  0  0  0  0  0  0
    3.7282    0.6835    0.2926 P   0  0  0  0  0  5  0  0  0  0  0  0
    4.2999    0.3971    1.6839 O   0  0  0  0  0  0  0  0  0  0  0  0
    3.9404   -0.6247   -0.7350 O   0  0  0  0  0  0  0  0  0  0  0  0
    4.4444    2.0991   -0.3195 O   0  0  0  0  0  0  0  0  0  0  0  0
   -0.9647   -0.8719   -0.1260 C   0  0  0  0  0  0  0  0  0  0  0  0
   -0.4058   -2.1386   -0.5677 C   0  0  0  0  0  0  0  0  0  0  0  0
   -1.1180   -3.0990   -0.8764 O   0  0  0  0  0  0  0  0  0  0  0  0
   -2.3088   -0.6001   -0.0031 C   0  0  0  0  0  0  0  0  0  0  0  0
   -3.2710   -1.5179   -0.2917 O   0  0  0  0  0  0  0  0  0  0  0  0
   -4.5075    1.6697   -0.2382 H   0  0  0  0  0  0  0  0  0  0  0  0
   -4.7434    0.0366    0.4096 H   0  0  0  0  0  0  0  0  0  0  0  0
   -4.3787    1.3754    1.5713 H   0  0  0  0  0  0  0  0  0  0  0  0
    0.2605    2.1690    0.8754 H   0  0  0  0  0  0  0  0  0  0  0  0
    1.6047   -1.0281    0.6714 H   0  0  0  0  0  0  0  0  0  0  0  0
    1.6002   -0.3696   -0.9844 H   0  0  0  0  0  0  0  0  0  0  0  0
    4.8290   -1.0638   -0.6041 H   0  0  0  0  0  0  0  0  0  0  0  0
    5.2244    1.8885   -0.8952 H   0  0  0  0  0  0  0  0  0  0  0  0
    0.6757   -2.2849   -0.6421 H   0  0  0  0  0  0  0  0  0  0  0  0
   -3.1272   -2.4280   -0.6031 H   0  0  0  0  0  0  0  0  0  0  0  0
  1  2  1  0
  2  3  2  0
  3  4  1  0
  4  5  2  0
  5  6  1  0
  6  7  1  0
  7  8  1  0
  8  9  2  0
  8 10  1  0
  8 11  1  0
  5 12  1  0
 12 13  1  0
 13 14  2  0
 12 15  2  0
 15 16  1  0
 15  2  1  0
  1 17  1  0
  1 18  1  0
  1 19  1  0
  4 20  1  0
  6 21  1  0
  6 22  1  0
 10 23  1  0
 11 24  1  0
 13 25  1  0
 16 26  1  0
M  END
$$$$

     RDKit          3D

 26 26  0  0  0  0  0  0  0  0999 V2000
   -4.0230    1.3036    0.7932 C   0  0  0  0  0  0  0  0  0  0  0  0
   -2.6035    0.8573    0.5790 C   0  0  0  0  0  0  0  0  0  0  0  0
   -1.6515    1.3895    1.3469 N   0  0  0  0  0  0  0  0  0  0  0  0
   -0.3567    1.0757    1.1499 C   0  0  0  0  0  0  0  0  0  0  0  0
    0.0380    0.1905    0.1694 C   0  0  0  0  0  0  0  0  0  0  0  0
    1.4873    0.0401   -0.1202 C   0  0  0  0  0  0  0  0  0  0  0  0
    2.1133   -1.1941    0.0032 O   0  0  0  0  0  0  0  0  0  0  0  0
    3.7310   -0.7945   -0.5429 P   0  0  0  0  0  5  0  0  0  0  0  0
    3.5800    0.1663   -1.7249 O   0  0  0  0  0  0  0  0  0  0  0  0
    4.4277   -0.0072    0.7272 O   0  0  0  0  0  0  0  0  0  0  0  0
    4.5208   -2.1954   -1.0345 O   0  0  0  0  0  0  0  0  0  0  0  0
   -0.9148   -0.3788   -0.6247 C   0  0  0  0  0  0  0  0  0  0  0  0
   -0.5974   -1.3422   -1.6667 C   0  0  0  0  0  0  0  0  0  0  0  0
    0.6396   -1.7265   -1.7404 O   0  0  0  0  0  0  0  0  0  0  0  0
   -2.2388   -0.0373   -0.4201 C   0  0  0  0  0  0  0  0  0  0  0  0
   -3.1873   -0.5845   -1.2319 O   0  0  0  0  0  0  0  0  0  0  0  0
   -4.7180    0.5016    0.5398 H   0  0  0  0  0  0  0  0  0  0  0  0
   -4.1333    1.8056    1.7567 H   0  0  0  0  0  0  0  0  0  0  0  0
   -4.2368    2.1404    0.0375 H   0  0  0  0  0  0  0  0  0  0  0  0
    0.3838    1.5965    1.7549 H   0  0  0  0  0  0  0  0  0  0  0  0
    1.9627    0.7421   -0.7360 H   0  0  0  0  0  0  0  0  0  0  0  0
    1.9150    0.4550    0.9726 H   0  0  0  0  0  0  0  0  0  0  0  0
    4.3751    0.9435    0.7963 H   0  0  0  0  0  0  0  0  0  0  0  0
    4.8218   -2.7465   -0.2393 H   0  0  0  0  0  0  0  0  0  0  0  0
   -1.1906   -1.7843   -2.3763 H   0  0  0  0  0  0  0  0  0  0  0  0
   -4.1441   -0.4162   -1.2263 H   0  0  0  0  0  0  0  0  0  0  0  0
  1  2  1  0
  2  3  2  0
  3  4  1  0
  4  5  2  0
  5  6  1  0
  6  7  1  0
  7  8  1  0
  8  9  2  0
  8 10  1  0
  8 11  1  0
  5 12  1  0
 12 13  1  0
 13 14  2  0
 12 15  2  0
 15 16  1  0
 15  2  1  0
  1 17  1  0
  1 18  1  0
  1 19  1  0
  4 20  1  0
  6 21  1  0
  6 22  1  0
 10 23  1  0
 11 24  1  0
 13 25  1  0
 16 26  1  0
M  END
$$$$

     RDKit          3D

 26 26  0  0  0  0  0  0  0  0999 V2000
   -3.3378    1.0880   -1.3092 C   0  0  0  0  0  0  0  0  0  0  0  0
   -2.0600    0.4741   -0.8624 C   0  0  0  0  0  0  0  0  0  0  0  0
   -1.0244    0.3132   -1.7016 N   0  0  0  0  0  0  0  0  0  0  0  0
    0.1324   -0.2380   -1.3063 C   0  0  0  0  0  0  0  0  0  0  0  0
    0.2764   -0.6537   -0.0053 C   0  0  0  0  0  0  0  0  0  0  0  0
    1.5055   -1.3000    0.5045 C   0  0  0  0  0  0  0  0  0  0  0  0
    2.5311   -1.3498   -0.3777 O   0  0  0  0  0  0  0  0  0  0  0  0
    3.2137    0.0917   -0.8479 P   0  0  0  0  0  5  0  0  0  0  0  0
    3.5799    0.0115   -2.3112 O   0  0  0  0  0  0  0  0  0  0  0  0
    4.7079    0.3558   -0.0489 O   0  0  0  0  0  0  0  0  0  0  0  0
    2.2673    1.4481   -0.6117 O   0  0  0  0  0  0  0  0  0  0  0  0
   -0.7916   -0.4988    0.8932 C   0  0  0  0  0  0  0  0  0  0  0  0
   -0.7078   -0.9256    2.2786 C   0  0  0  0  0  0  0  0  0  0  0  0
    0.2792   -1.4571    2.8212 O   0  0  0  0  0  0  0  0  0  0  0  0
   -1.9762    0.0749    0.4530 C   0  0  0  0  0  0  0  0  0  0  0  0
   -3.0602    0.2420    1.3320 O   0  0  0  0  0  0  0  0  0  0  0  0
   -3.3576    1.2591   -2.4025 H   0  0  0  0  0  0  0  0  0  0  0  0
   -3.4503    2.0450   -0.7393 H   0  0  0  0  0  0  0  0  0  0  0  0
   -4.2212    0.4715   -1.0489 H   0  0  0  0  0  0  0  0  0  0  0  0
    0.9495   -0.3863   -2.0255 H   0  0  0  0  0  0  0  0  0  0  0  0
    1.1982   -2.3014    0.8929 H   0  0  0  0  0  0  0  0  0  0  0  0
    1.8275   -0.6700    1.3983 H   0  0  0  0  0  0  0  0  0  0  0  0
    4.6390    0.1156    0.9075 H   0  0  0  0  0  0  0  0  0  0  0  0
    2.3745    1.8936    0.2447 H   0  0  0  0  0  0  0  0  0  0  0  0
   -1.5931   -0.7674    2.9098 H   0  0  0  0  0  0  0  0  0  0  0  0
   -3.9018    0.6639    0.9626 H   0  0  0  0  0  0  0  0  0  0  0  0
  1  2  1  0
  2  3  2  0
  3  4  1  0
  4  5  2  0
  5  6  1  0
  6  7  1  0
  7  8  1  0
  8  9  2  0
  8 10  1  0
  8 11  1  0
  5 12  1  0
 12 13  1  0
 13 14  2  0
 12 15  2  0
 15 16  1  0
 15  2  1  0
  1 17  1  0
  1 18  1  0
  1 19  1  0
  4 20  1  0
  6 21  1  0
  6 22  1  0
 10 23  1  0
 11 24  1  0
 13 25  1  0
 16 26  1  0
M  END
$$$$

     RDKit          3D

 26 26  0  0  0  0  0  0  0  0999 V2000
   -3.6335    2.2030    0.0895 C   0  0  0  0  0  0  0  0  0  0  0  0
   -2.3500    1.4493    0.1028 C   0  0  0  0  0  0  0  0  0  0  0  0
   -1.2067    2.0050   -0.2978 N   0  0  0  0  0  0  0  0  0  0  0  0
   -0.0514    1.3223   -0.2844 C   0  0  0  0  0  0  0  0  0  0  0  0
    0.0562    0.0255    0.1314 C   0  0  0  0  0  0  0  0  0  0  0  0
    1.3524   -0.7233    0.1407 C   0  0  0  0  0  0  0  0  0  0  0  0
    2.3816    0.0766   -0.3207 O   0  0  0  0  0  0  0  0  0  0  0  0
    3.8613   -0.6820   -0.3423 P   0  0  0  0  0  5  0  0  0  0  0  0
    4.1079   -1.4549    0.9388 O   0  0  0  0  0  0  0  0  0  0  0  0
    4.0111   -1.7636   -1.6506 O   0  0  0  0  0  0  0  0  0  0  0  0
    5.0685    0.5006   -0.5630 O   0  0  0  0  0  0  0  0  0  0  0  0
   -1.1208   -0.6073    0.5642 C   0  0  0  0  0  0  0  0  0  0  0  0
   -1.0088   -1.9806    1.0049 C   0  0  0  0  0  0  0  0  0  0  0  0
   -1.9828   -2.6197    1.4018 O   0  0  0  0  0  0  0  0  0  0  0  0
   -2.2966    0.1121    0.5423 C   0  0  0  0  0  0  0  0  0  0  0  0
   -3.5039   -0.4053    0.9420 O   0  0  0  0  0  0  0  0  0  0  0  0
   -4.4312    1.6176    0.5426 H   0  0  0  0  0  0  0  0  0  0  0  0
   -3.9377    2.4932   -0.9326 H   0  0  0  0  0  0  0  0  0  0  0  0
   -3.5560    3.1603    0.6706 H   0  0  0  0  0  0  0  0  0  0  0  0
    0.8903    1.7874   -0.6169 H   0  0  0  0  0  0  0  0  0  0  0  0
    1.6181   -1.0233    1.1835 H   0  0  0  0  0  0  0  0  0  0  0  0
    1.2757   -1.6670   -0.4320 H   0  0  0  0  0  0  0  0  0  0  0  0
    3.5430   -1.3780   -2.4371 H   0  0  0  0  0  0  0  0  0  0  0  0
    4.6686    1.3297   -0.9261 H   0  0  0  0  0  0  0  0  0  0  0  0
   -0.0528   -2.4754    0.9924 H   0  0  0  0  0  0  0  0  0  0  0  0
   -3.7023   -1.3023    1.2806 H   0  0  0  0  0  0  0  0  0  0  0  0
  1  2  1  0
  2  3  2  0
  3  4  1  0
  4  5  2  0
  5  6  1  0
  6  7  1  0
  7  8  1  0
  8  9  2  0
  8 10  1  0
  8 11  1  0
  5 12  1  0
 12 13  1  0
 13 14  2  0
 12 15  2  0
 15 16  1  0
 15  2  1  0
  1 17  1  0
  1 18  1  0
  1 19  1  0
  4 20  1  0
  6 21  1  0
  6 22  1  0
 10 23  1  0
 11 24  1  0
 13 25  1  0
 16 26  1  0
M  END
$$$$

     RDKit          3D

 26 26  0  0  0  0  0  0  0  0999 V2000
   -3.9502    0.9290    1.4284 C   0  0  0  0  0  0  0  0  0  0  0  0
   -2.5603    0.6382    0.9925 C   0  0  0  0  0  0  0  0  0  0  0  0
   -1.4992    1.0953    1.6597 N   0  0  0  0  0  0  0  0  0  0  0  0
   -0.2389    0.8351    1.2695 C   0  0  0  0  0  0  0  0  0  0  0  0
    0.0044    0.0773    0.1522 C   0  0  0  0  0  0  0  0  0  0  0  0
    1.3830   -0.2278   -0.3048 C   0  0  0  0  0  0  0  0  0  0  0  0
    2.3465    0.3210    0.4980 O   0  0  0  0  0  0  0  0  0  0  0  0
    3.8588   -0.1020   -0.1335 P   0  0  0  0  0  5  0  0  0  0  0  0
    3.7342   -0.9948   -1.3352 O   0  0  0  0  0  0  0  0  0  0  0  0
    4.7331    1.3009   -0.5734 O   0  0  0  0  0  0  0  0  0  0  0  0
    4.7961   -0.9137    1.0191 O   0  0  0  0  0  0  0  0  0  0  0  0
   -1.1000   -0.4132   -0.5639 C   0  0  0  0  0  0  0  0  0  0  0  0
   -0.7933   -1.2015   -1.7265 C   0  0  0  0  0  0  0  0  0  0  0  0
   -1.6648   -1.7038   -2.4615 O   0  0  0  0  0  0  0  0  0  0  0  0
   -2.3937   -0.1474   -0.1653 C   0  0  0  0  0  0  0  0  0  0  0  0
   -3.5231   -0.5907   -0.8119 O   0  0  0  0  0  0  0  0  0  0  0  0
   -4.6104    1.1555    0.5448 H   0  0  0  0  0  0  0  0  0  0  0  0
   -4.3116    0.0516    1.9923 H   0  0  0  0  0  0  0  0  0  0  0  0
   -4.0059    1.8109    2.0867 H   0  0  0  0  0  0  0  0  0  0  0  0
    0.6202    1.2092    1.8156 H   0  0  0  0  0  0  0  0  0  0  0  0
    1.4551   -1.3360   -0.3926 H   0  0  0  0  0  0  0  0  0  0  0  0
    1.4621    0.1674   -1.3552 H   0  0  0  0  0  0  0  0  0  0  0  0
    4.1071    2.0659   -0.5958 H   0  0  0  0  0  0  0  0  0  0  0  0
    5.4822   -1.4753    0.6222 H   0  0  0  0  0  0  0  0  0  0  0  0
    0.2358   -1.4120   -2.0423 H   0  0  0  0  0  0  0  0  0  0  0  0
   -3.5672   -1.1391   -1.6192 H   0  0  0  0  0  0  0  0  0  0  0  0
  1  2  1  0
  2  3  2  0
  3  4  1  0
  4  5  2  0
  5  6  1  0
  6  7  1  0
  7  8  1  0
  8  9  2  0
  8 10  1  0
  8 11  1  0
  5 12  1  0
 12 13  1  0
 13 14  2  0
 12 15  2  0
 15 16  1  0
 15  2  1  0
  1 17  1  0
  1 18  1  0
  1 19  1  0
  4 20  1  0
  6 21  1  0
  6 22  1  0
 10 23  1  0
 11 24  1  0
 13 25  1  0
 16 26  1  0
M  END
$$$$

     RDKit          3D

 26 26  0  0  0  0  0  0  0  0999 V2000
   -4.0478    1.4757    0.3468 C   0  0  0  0  0  0  0  0  0  0  0  0
   -2.6249    1.0370    0.2628 C   0  0  0  0  0  0  0  0  0  0  0  0
   -1.6154    1.9052    0.1674 N   0  0  0  0  0  0  0  0  0  0  0  0
   -0.3344    1.4875    0.0923 C   0  0  0  0  0  0  0  0  0  0  0  0
   -0.0103    0.1509    0.1106 C   0  0  0  0  0  0  0  0  0  0  0  0
    1.3789   -0.3382    0.0235 C   0  0  0  0  0  0  0  0  0  0  0  0
    2.2873    0.7316   -0.0631 O   0  0  0  0  0  0  0  0  0  0  0  0
    3.8731    0.1792   -0.1627 P   0  0  0  0  0  5  0  0  0  0  0  0
    4.3929   -0.3041    1.1763 O   0  0  0  0  0  0  0  0  0  0  0  0
    4.8461    1.4843   -0.6356 O   0  0  0  0  0  0  0  0  0  0  0  0
    4.0191   -1.1009   -1.2643 O   0  0  0  0  0  0  0  0  0  0  0  0
   -1.0405   -0.7614    0.2091 C   0  0  0  0  0  0  0  0  0  0  0  0
   -0.7845   -2.1881    0.2392 C   0  0  0  0  0  0  0  0  0  0  0  0
    0.3684   -2.6588    0.1763 O   0  0  0  0  0  0  0  0  0  0  0  0
   -2.3560   -0.3331    0.2860 C   0  0  0  0  0  0  0  0  0  0  0  0
   -3.4197   -1.2027    0.3852 O   0  0  0  0  0  0  0  0  0  0  0  0
   -4.3800    1.6347   -0.7058 H   0  0  0  0  0  0  0  0  0  0  0  0
   -4.6426    0.6860    0.8170 H   0  0  0  0  0  0  0  0  0  0  0  0
   -4.1093    2.3893    0.9598 H   0  0  0  0  0  0  0  0  0  0  0  0
    0.4921    2.1877    0.0146 H   0  0  0  0  0  0  0  0  0  0  0  0
    1.4990   -1.0116   -0.8543 H   0  0  0  0  0  0  0  0  0  0  0  0
    1.5953   -0.9056    0.9454 H   0  0  0  0  0  0  0  0  0  0  0  0
    4.7425    2.1759    0.0668 H   0  0  0  0  0  0  0  0  0  0  0  0
    4.8016   -1.6593   -1.0708 H   0  0  0  0  0  0  0  0  0  0  0  0
   -1.5899   -2.8777    0.3171 H   0  0  0  0  0  0  0  0  0  0  0  0
   -3.3409   -2.1833    0.4094 H   0  0  0  0  0  0  0  0  0  0  0  0
  1  2  1  0
  2  3  2  0
  3  4  1  0
  4  5  2  0
  5  6  1  0
  6  7  1  0
  7  8  1  0
  8  9  2  0
  8 10  1  0
  8 11  1  0
  5 12  1  0
 12 13  1  0
 13 14  2  0
 12 15  2  0
 15 16  1  0
 15  2  1  0
  1 17  1  0
  1 18  1  0
  1 19  1  0
  4 20  1  0
  6 21  1  0
  6 22  1  0
 10 23  1  0
 11 24  1  0
 13 25  1  0
 16 26  1  0
M  END
$$$$

     RDKit          3D

 26 26  0  0  0  0  0  0  0  0999 V2000
   -4.2255    0.6673    0.2124 C   0  0  0  0  0  0  0  0  0  0  0  0
   -2.7417    0.4827    0.1970 C   0  0  0  0  0  0  0  0  0  0  0  0
   -1.9291    1.5250    0.2563 N   0  0  0  0  0  0  0  0  0  0  0  0
   -0.6233    1.3376    0.2412 C   0  0  0  0  0  0  0  0  0  0  0  0
   -0.0398    0.1011    0.1661 C   0  0  0  0  0  0  0  0  0  0  0  0
    1.4417   -0.0548    0.1524 C   0  0  0  0  0  0  0  0  0  0  0  0
    2.0120    1.1801    0.2239 O   0  0  0  0  0  0  0  0  0  0  0  0
    3.6617    1.2356    0.2221 P   0  0  0  0  0  5  0  0  0  0  0  0
    4.1108    2.1732    1.3356 O   0  0  0  0  0  0  0  0  0  0  0  0
    4.2994   -0.2853    0.5705 O   0  0  0  0  0  0  0  0  0  0  0  0
    4.2177    1.8148   -1.2637 O   0  0  0  0  0  0  0  0  0  0  0  0
   -0.8621   -1.0363    0.1012 C   0  0  0  0  0  0  0  0  0  0  0  0
   -0.2209   -2.3181    0.0232 C   0  0  0  0  0  0  0  0  0  0  0  0
   -0.8531   -3.3834   -0.0380 O   0  0  0  0  0  0  0  0  0  0  0  0
   -2.2183   -0.8199    0.1181 C   0  0  0  0  0  0  0  0  0  0  0  0
   -3.1066   -1.8557    0.0594 O   0  0  0  0  0  0  0  0  0  0  0  0
   -4.6414    0.3102    1.1547 H   0  0  0  0  0  0  0  0  0  0  0  0
   -4.6222    0.0315   -0.6225 H   0  0  0  0  0  0  0  0  0  0  0  0
   -4.4618    1.7218    0.0350 H   0  0  0  0  0  0  0  0  0  0  0  0
    0.0653    2.2026    0.2904 H   0  0  0  0  0  0  0  0  0  0  0  0
    1.7064   -0.6434    1.0457 H   0  0  0  0  0  0  0  0  0  0  0  0
    1.6851   -0.6314   -0.7605 H   0  0  0  0  0  0  0  0  0  0  0  0
    4.3021   -0.7930   -0.2836 H   0  0  0  0  0  0  0  0  0  0  0  0
    5.1148    2.2230   -1.2039 H   0  0  0  0  0  0  0  0  0  0  0  0
    0.8703   -2.3694    0.0169 H   0  0  0  0  0  0  0  0  0  0  0  0
   -2.9417   -2.8160    0.0019 H   0  0  0  0  0  0  0  0  0  0  0  0
  1  2  1  0
  2  3  2  0
  3  4  1  0
  4  5  2  0
  5  6  1  0
  6  7  1  0
  7  8  1  0
  8  9  2  0
  8 10  1  0
  8 11  1  0
  5 12  1  0
 12 13  1  0
 13 14  2  0
 12 15  2  0
 15 16  1  0
 15  2  1  0
  1 17  1  0
  1 18  1  0
  1 19  1  0
  4 20  1  0
  6 21  1  0
  6 22  1  0
 10 23  1  0
 11 24  1  0
 13 25  1  0
 16 26  1  0
M  END
$$$$

     RDKit          3D

 26 26  0  0  0  0  0  0  0  0999 V2000
   -4.0251   -0.9499    0.6242 C   0  0  0  0  0  0  0  0  0  0  0  0
   -2.5572   -0.6437    0.4421 C   0  0  0  0  0  0  0  0  0  0  0  0
   -1.6252   -1.3036    1.1523 N   0  0  0  0  0  0  0  0  0  0  0  0
   -0.3342   -0.9878    0.9471 C   0  0  0  0  0  0  0  0  0  0  0  0
    0.0739   -0.0265    0.0496 C   0  0  0  0  0  0  0  0  0  0  0  0
    1.5082    0.3039   -0.1586 C   0  0  0  0  0  0  0  0  0  0  0  0
    2.2482   -0.4983    0.6742 O   0  0  0  0  0  0  0  0  0  0  0  0
    3.8942   -0.2740    0.5851 P   0  0  0  0  0  5  0  0  0  0  0  0
    4.3682    0.2104    1.9585 O   0  0  0  0  0  0  0  0  0  0  0  0
    4.6657   -1.7643    0.3101 O   0  0  0  0  0  0  0  0  0  0  0  0
    4.3796    0.8222   -0.5759 O   0  0  0  0  0  0  0  0  0  0  0  0
   -0.9100    0.6327   -0.6639 C   0  0  0  0  0  0  0  0  0  0  0  0
   -0.5196    1.6454   -1.6126 C   0  0  0  0  0  0  0  0  0  0  0  0
   -1.4236    2.2426   -2.2600 O   0  0  0  0  0  0  0  0  0  0  0  0
   -2.2585    0.3331   -0.4790 C   0  0  0  0  0  0  0  0  0  0  0  0
   -3.2143    1.0204   -1.2174 O   0  0  0  0  0  0  0  0  0  0  0  0
   -4.1730   -1.7834    1.3166 H   0  0  0  0  0  0  0  0  0  0  0  0
   -4.5203   -0.0410    1.0355 H   0  0  0  0  0  0  0  0  0  0  0  0
   -4.4209   -1.1077   -0.3862 H   0  0  0  0  0  0  0  0  0  0  0  0
    0.4492   -1.5056    1.5085 H   0  0  0  0  0  0  0  0  0  0  0  0
    1.6810    1.3622    0.1438 H   0  0  0  0  0  0  0  0  0  0  0  0
    1.7964    0.2429   -1.2259 H   0  0  0  0  0  0  0  0  0  0  0  0
    4.4469   -2.4222    1.0131 H   0  0  0  0  0  0  0  0  0  0  0  0
    4.1361    1.7540   -0.2867 H   0  0  0  0  0  0  0  0  0  0  0  0
    0.5264    1.8658   -1.7445 H   0  0  0  0  0  0  0  0  0  0  0  0
   -4.1921    0.8722   -1.1500 H   0  0  0  0  0  0  0  0  0  0  0  0
  1  2  1  0
  2  3  2  0
  3  4  1  0
  4  5  2  0
  5  6  1  0
  6  7  1  0
  7  8  1  0
  8  9  2  0
  8 10  1  0
  8 11  1  0
  5 12  1  0
 12 13  1  0
 13 14  2  0
 12 15  2  0
 15 16  1  0
 15  2  1  0
  1 17  1  0
  1 18  1  0
  1 19  1  0
  4 20  1  0
  6 21  1  0
  6 22  1  0
 10 23  1  0
 11 24  1  0
 13 25  1  0
 16 26  1  0
M  END
$$$$

     RDKit          3D

 26 26  0  0  0  0  0  0  0  0999 V2000
    4.2313    0.2485    0.9656 C   0  0  0  0  0  0  0  0  0  0  0  0
    2.7322    0.2403    0.8149 C   0  0  0  0  0  0  0  0  0  0  0  0
    1.8893    0.7807    1.6750 N   0  0  0  0  0  0  0  0  0  0  0  0
    0.5308    0.7963    1.5417 C   0  0  0  0  0  0  0  0  0  0  0  0
   -0.0466    0.1930    0.4108 C   0  0  0  0  0  0  0  0  0  0  0  0
   -1.4513    0.3393    0.0823 C   0  0  0  0  0  0  0  0  0  0  0  0
   -2.3717   -0.4004    0.7976 O   0  0  0  0  0  0  0  0  0  0  0  0
   -3.9250   -0.0412    0.2289 P   0  0  0  0  0  5  0  0  0  0  0  0
   -4.8019    0.4782    1.3408 O   0  0  0  0  0  0  0  0  0  0  0  0
   -3.8549    1.0918   -1.0665 O   0  0  0  0  0  0  0  0  0  0  0  0
   -4.7247   -1.4173   -0.4049 O   0  0  0  0  0  0  0  0  0  0  0  0
    0.8247   -0.3774   -0.4954 C   0  0  0  0  0  0  0  0  0  0  0  0
    0.2610   -1.0872   -1.6235 C   0  0  0  0  0  0  0  0  0  0  0  0
   -1.0508   -1.0517   -1.7532 O   0  0  0  0  0  0  0  0  0  0  0  0
    2.1876   -0.3549   -0.3014 C   0  0  0  0  0  0  0  0  0  0  0  0
    2.9904   -0.9457   -1.2720 O   0  0  0  0  0  0  0  0  0  0  0  0
    4.5997    0.6646   -0.0199 H   0  0  0  0  0  0  0  0  0  0  0  0
    4.5503    0.9713    1.6913 H   0  0  0  0  0  0  0  0  0  0  0  0
    4.6183   -0.7394    1.2136 H   0  0  0  0  0  0  0  0  0  0  0  0
   -0.0348    1.3019    2.3021 H   0  0  0  0  0  0  0  0  0  0  0  0
   -1.6390    1.4048    0.7895 H   0  0  0  0  0  0  0  0  0  0  0  0
   -1.7706    0.8066   -0.8311 H   0  0  0  0  0  0  0  0  0  0  0  0
   -4.1196    1.9595   -0.7862 H   0  0  0  0  0  0  0  0  0  0  0  0
   -4.3314   -2.2616   -0.1067 H   0  0  0  0  0  0  0  0  0  0  0  0
    0.7398   -1.6191   -2.3533 H   0  0  0  0  0  0  0  0  0  0  0  0
    3.9670   -0.9808   -1.3301 H   0  0  0  0  0  0  0  0  0  0  0  0
  1  2  1  0
  2  3  2  0
  3  4  1  0
  4  5  2  0
  5  6  1  0
  6  7  1  0
  7  8  1  0
  8  9  2  0
  8 10  1  0
  8 11  1  0
  5 12  1  0
 12 13  1  0
 13 14  2  0
 12 15  2  0
 15 16  1  0
 15  2  1  0
  1 17  1  0
  1 18  1  0
  1 19  1  0
  4 20  1  0
  6 21  1  0
  6 22  1  0
 10 23  1  0
 11 24  1  0
 13 25  1  0
 16 26  1  0
M  END
$$$$

     RDKit          3D

 26 26  0  0  0  0  0  0  0  0999 V2000
   -3.8713    1.5211    0.7120 C   0  0  0  0  0  0  0  0  0  0  0  0
   -2.4804    1.0462    0.4126 C   0  0  0  0  0  0  0  0  0  0  0  0
   -1.4881    1.8961    0.1240 N   0  0  0  0  0  0  0  0  0  0  0  0
   -0.2503    1.4465   -0.1407 C   0  0  0  0  0  0  0  0  0  0  0  0
    0.0146    0.0836   -0.1175 C   0  0  0  0  0  0  0  0  0  0  0  0
    1.3740   -0.4060   -0.4124 C   0  0  0  0  0  0  0  0  0  0  0  0
    2.1959    0.7247   -0.6735 O   0  0  0  0  0  0  0  0  0  0  0  0
    3.7746    0.2504   -1.0214 P   0  0  0  0  0  5  0  0  0  0  0  0
    4.0839    0.5596   -2.4743 O   0  0  0  0  0  0  0  0  0  0  0  0
    3.9129   -1.4048   -0.7064 O   0  0  0  0  0  0  0  0  0  0  0  0
    4.8323    1.0812   -0.0287 O   0  0  0  0  0  0  0  0  0  0  0  0
   -0.9932   -0.8023    0.1772 C   0  0  0  0  0  0  0  0  0  0  0  0
   -0.7136   -2.2168    0.2023 C   0  0  0  0  0  0  0  0  0  0  0  0
    0.4348   -2.6274   -0.0428 O   0  0  0  0  0  0  0  0  0  0  0  0
   -2.2884   -0.3242    0.4536 C   0  0  0  0  0  0  0  0  0  0  0  0
   -3.3083   -1.1842    0.7494 O   0  0  0  0  0  0  0  0  0  0  0  0
   -4.0711    1.5805    1.7884 H   0  0  0  0  0  0  0  0  0  0  0  0
   -3.9616    2.5133    0.2074 H   0  0  0  0  0  0  0  0  0  0  0  0
   -4.5788    0.7858    0.2753 H   0  0  0  0  0  0  0  0  0  0  0  0
    0.5614    2.1224   -0.3756 H   0  0  0  0  0  0  0  0  0  0  0  0
    1.8679   -0.8943    0.4454 H   0  0  0  0  0  0  0  0  0  0  0  0
    1.4353   -1.0271   -1.3374 H   0  0  0  0  0  0  0  0  0  0  0  0
    3.8111   -1.5125    0.2746 H   0  0  0  0  0  0  0  0  0  0  0  0
    4.4223    1.9209    0.2822 H   0  0  0  0  0  0  0  0  0  0  0  0
   -1.4574   -2.9527    0.4258 H   0  0  0  0  0  0  0  0  0  0  0  0
   -3.2584   -2.1800    0.8004 H   0  0  0  0  0  0  0  0  0  0  0  0
  1  2  1  0
  2  3  2  0
  3  4  1  0
  4  5  2  0
  5  6  1  0
  6  7  1  0
  7  8  1  0
  8  9  2  0
  8 10  1  0
  8 11  1  0
  5 12  1  0
 12 13  1  0
 13 14  2  0
 12 15  2  0
 15 16  1  0
 15  2  1  0
  1 17  1  0
  1 18  1  0
  1 19  1  0
  4 20  1  0
  6 21  1  0
  6 22  1  0
 10 23  1  0
 11 24  1  0
 13 25  1  0
 16 26  1  0
M  END
$$$$

     RDKit          3D

 26 26  0  0  0  0  0  0  0  0999 V2000
   -3.5441   -0.6178    1.1321 C   0  0  0  0  0  0  0  0  0  0  0  0
   -2.2016   -0.4022    0.5256 C   0  0  0  0  0  0  0  0  0  0  0  0
   -1.2400   -1.3397    0.5598 N   0  0  0  0  0  0  0  0  0  0  0  0
   -0.0173   -1.1338    0.0052 C   0  0  0  0  0  0  0  0  0  0  0  0
    0.2980    0.0483   -0.6190 C   0  0  0  0  0  0  0  0  0  0  0  0
    1.5849    0.3111   -1.2767 C   0  0  0  0  0  0  0  0  0  0  0  0
    2.4724   -0.7154   -1.0616 O   0  0  0  0  0  0  0  0  0  0  0  0
    2.9761   -0.9310    0.5115 P   0  0  0  0  0  5  0  0  0  0  0  0
    2.0985   -0.2927    1.5530 O   0  0  0  0  0  0  0  0  0  0  0  0
    3.1366   -2.5718    0.8818 O   0  0  0  0  0  0  0  0  0  0  0  0
    4.5601   -0.2911    0.6771 O   0  0  0  0  0  0  0  0  0  0  0  0
   -0.7028    1.0310   -0.6587 C   0  0  0  0  0  0  0  0  0  0  0  0
   -0.4313    2.2870   -1.3045 C   0  0  0  0  0  0  0  0  0  0  0  0
    0.6405    2.6276   -1.8607 O   0  0  0  0  0  0  0  0  0  0  0  0
   -1.9527    0.8091   -0.0877 C   0  0  0  0  0  0  0  0  0  0  0  0
   -2.8922    1.8219   -0.1638 O   0  0  0  0  0  0  0  0  0  0  0  0
   -3.9600    0.3140    1.5346 H   0  0  0  0  0  0  0  0  0  0  0  0
   -3.3794   -1.3577    1.9646 H   0  0  0  0  0  0  0  0  0  0  0  0
   -4.2666   -1.0562    0.4213 H   0  0  0  0  0  0  0  0  0  0  0  0
    0.6447   -1.9841    0.0802 H   0  0  0  0  0  0  0  0  0  0  0  0
    2.0832    1.2205   -0.8040 H   0  0  0  0  0  0  0  0  0  0  0  0
    1.4675    0.5374   -2.3652 H   0  0  0  0  0  0  0  0  0  0  0  0
    2.6231   -2.8504    1.6736 H   0  0  0  0  0  0  0  0  0  0  0  0
    5.0544   -0.3323   -0.1784 H   0  0  0  0  0  0  0  0  0  0  0  0
   -1.2355    3.0425   -1.3239 H   0  0  0  0  0  0  0  0  0  0  0  0
   -3.8165    1.8258    0.1837 H   0  0  0  0  0  0  0  0  0  0  0  0
  1  2  1  0
  2  3  2  0
  3  4  1  0
  4  5  2  0
  5  6  1  0
  6  7  1  0
  7  8  1  0
  8  9  2  0
  8 10  1  0
  8 11  1  0
  5 12  1  0
 12 13  1  0
 13 14  2  0
 12 15  2  0
 15 16  1  0
 15  2  1  0
  1 17  1  0
  1 18  1  0
  1 19  1  0
  4 20  1  0
  6 21  1  0
  6 22  1  0
 10 23  1  0
 11 24  1  0
 13 25  1  0
 16 26  1  0
M  END
$$$$

     RDKit          3D

 26 26  0  0  0  0  0  0  0  0999 V2000
   -4.0979    1.2099    0.1673 C   0  0  0  0  0  0  0  0  0  0  0  0
   -2.6807    0.8414    0.1465 C   0  0  0  0  0  0  0  0  0  0  0  0
   -1.7345    1.7694    0.2276 N   0  0  0  0  0  0  0  0  0  0  0  0
   -0.4354    1.4212    0.2077 C   0  0  0  0  0  0  0  0  0  0  0  0
   -0.0174    0.1253    0.1055 C   0  0  0  0  0  0  0  0  0  0  0  0
    1.4222   -0.1723    0.0906 C   0  0  0  0  0  0  0  0  0  0  0  0
    2.2096    0.9573    0.1870 O   0  0  0  0  0  0  0  0  0  0  0  0
    3.8293    0.4735    0.1582 P   0  0  0  0  0  5  0  0  0  0  0  0
    4.4565    0.7628   -1.1898 O   0  0  0  0  0  0  0  0  0  0  0  0
    4.7080    1.3253    1.3441 O   0  0  0  0  0  0  0  0  0  0  0  0
    3.9604   -1.1782    0.5111 O   0  0  0  0  0  0  0  0  0  0  0  0
   -0.9914   -0.8776    0.0181 C   0  0  0  0  0  0  0  0  0  0  0  0
   -0.5576   -2.2642   -0.0914 C   0  0  0  0  0  0  0  0  0  0  0  0
   -1.3354   -3.2297   -0.1745 O   0  0  0  0  0  0  0  0  0  0  0  0
   -2.3223   -0.5110    0.0393 C   0  0  0  0  0  0  0  0  0  0  0  0
   -3.3800   -1.3771   -0.0375 O   0  0  0  0  0  0  0  0  0  0  0  0
   -4.2387    2.0119    0.9259 H   0  0  0  0  0  0  0  0  0  0  0  0
   -4.4396    1.5893   -0.8398 H   0  0  0  0  0  0  0  0  0  0  0  0
   -4.7763    0.3818    0.4468 H   0  0  0  0  0  0  0  0  0  0  0  0
    0.2739    2.2558    0.2798 H   0  0  0  0  0  0  0  0  0  0  0  0
    1.6643   -0.9248    0.8771 H   0  0  0  0  0  0  0  0  0  0  0  0
    1.6672   -0.6438   -0.9063 H   0  0  0  0  0  0  0  0  0  0  0  0
    4.7865    2.2872    1.1165 H   0  0  0  0  0  0  0  0  0  0  0  0
    4.7934   -1.4070    0.9729 H   0  0  0  0  0  0  0  0  0  0  0  0
    0.5298   -2.4788   -0.1018 H   0  0  0  0  0  0  0  0  0  0  0  0
   -3.2939   -2.3476   -0.1156 H   0  0  0  0  0  0  0  0  0  0  0  0
  1  2  1  0
  2  3  2  0
  3  4  1  0
  4  5  2  0
  5  6  1  0
  6  7  1  0
  7  8  1  0
  8  9  2  0
  8 10  1  0
  8 11  1  0
  5 12  1  0
 12 13  1  0
 13 14  2  0
 12 15  2  0
 15 16  1  0
 15  2  1  0
  1 17  1  0
  1 18  1  0
  1 19  1  0
  4 20  1  0
  6 21  1  0
  6 22  1  0
 10 23  1  0
 11 24  1  0
 13 25  1  0
 16 26  1  0
M  END
$$$$

     RDKit          3D

 26 26  0  0  0  0  0  0  0  0999 V2000
    4.0246    0.9586   -0.0842 C   0  0  0  0  0  0  0  0  0  0  0  0
    2.5657    0.6698    0.0036 C   0  0  0  0  0  0  0  0  0  0  0  0
    1.6871    1.6596   -0.1865 N   0  0  0  0  0  0  0  0  0  0  0  0
    0.3659    1.4210   -0.1118 C   0  0  0  0  0  0  0  0  0  0  0  0
   -0.0741    0.1435    0.1633 C   0  0  0  0  0  0  0  0  0  0  0  0
   -1.5214   -0.1898    0.2602 C   0  0  0  0  0  0  0  0  0  0  0  0
   -2.2436    0.9789    0.0297 O   0  0  0  0  0  0  0  0  0  0  0  0
   -3.8814    0.5649    0.1471 P   0  0  0  0  0  5  0  0  0  0  0  0
   -4.3934    0.6697    1.5586 O   0  0  0  0  0  0  0  0  0  0  0  0
   -4.7207    1.6000   -0.9034 O   0  0  0  0  0  0  0  0  0  0  0  0
   -4.0356   -1.0069   -0.4700 O   0  0  0  0  0  0  0  0  0  0  0  0
    0.8158   -0.8873    0.3617 C   0  0  0  0  0  0  0  0  0  0  0  0
    0.3340   -2.2469    0.6547 C   0  0  0  0  0  0  0  0  0  0  0  0
    1.1731   -3.1657    0.8307 O   0  0  0  0  0  0  0  0  0  0  0  0
    2.1534   -0.6264    0.2820 C   0  0  0  0  0  0  0  0  0  0  0  0
    3.0680   -1.6354    0.4755 O   0  0  0  0  0  0  0  0  0  0  0  0
    4.5948    0.4724    0.7096 H   0  0  0  0  0  0  0  0  0  0  0  0
    4.3898    0.5694   -1.0768 H   0  0  0  0  0  0  0  0  0  0  0  0
    4.2047    2.0561    0.0026 H   0  0  0  0  0  0  0  0  0  0  0  0
   -0.3705    2.2168   -0.2641 H   0  0  0  0  0  0  0  0  0  0  0  0
   -1.7542   -0.5630    1.2843 H   0  0  0  0  0  0  0  0  0  0  0  0
   -1.7363   -0.9787   -0.4872 H   0  0  0  0  0  0  0  0  0  0  0  0
   -4.1369    2.1458   -1.4501 H   0  0  0  0  0  0  0  0  0  0  0  0
   -3.8336   -0.9299   -1.4505 H   0  0  0  0  0  0  0  0  0  0  0  0
   -0.7393   -2.4195    0.7110 H   0  0  0  0  0  0  0  0  0  0  0  0
    4.0643   -1.4771    0.4237 H   0  0  0  0  0  0  0  0  0  0  0  0
  1  2  1  0
  2  3  2  0
  3  4  1  0
  4  5  2  0
  5  6  1  0
  6  7  1  0
  7  8  1  0
  8  9  2  0
  8 10  1  0
  8 11  1  0
  5 12  1  0
 12 13  1  0
 13 14  2  0
 12 15  2  0
 15 16  1  0
 15  2  1  0
  1 17  1  0
  1 18  1  0
  1 19  1  0
  4 20  1  0
  6 21  1  0
  6 22  1  0
 10 23  1  0
 11 24  1  0
 13 25  1  0
 16 26  1  0
M  END
$$$$

     RDKit          3D

 26 26  0  0  0  0  0  0  0  0999 V2000
   -3.7549    1.0747   -1.4967 C   0  0  0  0  0  0  0  0  0  0  0  0
   -2.4282    0.6678   -0.9618 C   0  0  0  0  0  0  0  0  0  0  0  0
   -1.2952    0.7777   -1.6629 N   0  0  0  0  0  0  0  0  0  0  0  0
   -0.1119    0.4041   -1.1582 C   0  0  0  0  0  0  0  0  0  0  0  0
    0.0121   -0.1168    0.1146 C   0  0  0  0  0  0  0  0  0  0  0  0
    1.3529   -0.5075    0.6288 C   0  0  0  0  0  0  0  0  0  0  0  0
    2.2806   -0.2611   -0.3735 O   0  0  0  0  0  0  0  0  0  0  0  0
    3.8461   -0.6619    0.0814 P   0  0  0  0  0  5  0  0  0  0  0  0
    3.8899   -2.1079    0.5242 O   0  0  0  0  0  0  0  0  0  0  0  0
    4.4380    0.3516    1.3053 O   0  0  0  0  0  0  0  0  0  0  0  0
    4.8570   -0.4893   -1.2641 O   0  0  0  0  0  0  0  0  0  0  0  0
   -1.1432   -0.2515    0.8859 C   0  0  0  0  0  0  0  0  0  0  0  0
   -1.0164   -0.8032    2.2218 C   0  0  0  0  0  0  0  0  0  0  0  0
    0.0545   -1.1708    2.7479 O   0  0  0  0  0  0  0  0  0  0  0  0
   -2.3353    0.1439    0.3297 C   0  0  0  0  0  0  0  0  0  0  0  0
   -3.5128    0.0441    1.0219 O   0  0  0  0  0  0  0  0  0  0  0  0
   -3.8392    2.1697   -1.3291 H   0  0  0  0  0  0  0  0  0  0  0  0
   -4.5381    0.5666   -0.8845 H   0  0  0  0  0  0  0  0  0  0  0  0
   -3.8573    0.7970   -2.5654 H   0  0  0  0  0  0  0  0  0  0  0  0
    0.8168    0.5001   -1.7478 H   0  0  0  0  0  0  0  0  0  0  0  0
    1.3513   -1.5892    0.8622 H   0  0  0  0  0  0  0  0  0  0  0  0
    1.6178    0.0267    1.5731 H   0  0  0  0  0  0  0  0  0  0  0  0
    4.1506    1.2816    1.1420 H   0  0  0  0  0  0  0  0  0  0  0  0
    4.6112    0.3808   -1.7053 H   0  0  0  0  0  0  0  0  0  0  0  0
   -1.9045   -0.9096    2.8165 H   0  0  0  0  0  0  0  0  0  0  0  0
   -3.5420   -0.3177    1.9490 H   0  0  0  0  0  0  0  0  0  0  0  0
  1  2  1  0
  2  3  2  0
  3  4  1  0
  4  5  2  0
  5  6  1  0
  6  7  1  0
  7  8  1  0
  8  9  2  0
  8 10  1  0
  8 11  1  0
  5 12  1  0
 12 13  1  0
 13 14  2  0
 12 15  2  0
 15 16  1  0
 15  2  1  0
  1 17  1  0
  1 18  1  0
  1 19  1  0
  4 20  1  0
  6 21  1  0
  6 22  1  0
 10 23  1  0
 11 24  1  0
 13 25  1  0
 16 26  1  0
M  END
$$$$

     RDKit          3D

 26 26  0  0  0  0  0  0  0  0999 V2000
   -4.0277   -1.0670   -0.1279 C   0  0  0  0  0  0  0  0  0  0  0  0
   -2.5812   -0.7349   -0.0819 C   0  0  0  0  0  0  0  0  0  0  0  0
   -1.6807   -1.6796   -0.3880 N   0  0  0  0  0  0  0  0  0  0  0  0
   -0.3730   -1.4132   -0.3562 C   0  0  0  0  0  0  0  0  0  0  0  0
    0.0214   -0.1320    0.0024 C   0  0  0  0  0  0  0  0  0  0  0  0
    1.4592    0.1656    0.0387 C   0  0  0  0  0  0  0  0  0  0  0  0
    2.2265   -0.9417   -0.3100 O   0  0  0  0  0  0  0  0  0  0  0  0
    3.8520   -0.4511   -0.2242 P   0  0  0  0  0  5  0  0  0  0  0  0
    4.2908    0.2039   -1.5186 O   0  0  0  0  0  0  0  0  0  0  0  0
    4.0347    0.6723    1.0124 O   0  0  0  0  0  0  0  0  0  0  0  0
    4.7643   -1.8580    0.0752 O   0  0  0  0  0  0  0  0  0  0  0  0
   -0.8863    0.8462    0.3184 C   0  0  0  0  0  0  0  0  0  0  0  0
   -0.4637    2.2052    0.6987 C   0  0  0  0  0  0  0  0  0  0  0  0
    0.7510    2.5235    0.7488 O   0  0  0  0  0  0  0  0  0  0  0  0
   -2.2275    0.5475    0.2785 C   0  0  0  0  0  0  0  0  0  0  0  0
   -3.1741    1.5193    0.5940 O   0  0  0  0  0  0  0  0  0  0  0  0
   -4.1791   -2.0630   -0.5971 H   0  0  0  0  0  0  0  0  0  0  0  0
   -4.5315   -0.2732   -0.7019 H   0  0  0  0  0  0  0  0  0  0  0  0
   -4.3965   -1.0852    0.9171 H   0  0  0  0  0  0  0  0  0  0  0  0
    0.3798   -2.1625   -0.6004 H   0  0  0  0  0  0  0  0  0  0  0  0
    1.7303    0.9681   -0.6942 H   0  0  0  0  0  0  0  0  0  0  0  0
    1.7902    0.4551    1.0678 H   0  0  0  0  0  0  0  0  0  0  0  0
    3.8249    1.5615    0.6304 H   0  0  0  0  0  0  0  0  0  0  0  0
    4.7356   -2.0620    1.0518 H   0  0  0  0  0  0  0  0  0  0  0  0
   -1.1846    2.9704    0.9463 H   0  0  0  0  0  0  0  0  0  0  0  0
   -4.1547    1.2848    0.5602 H   0  0  0  0  0  0  0  0  0  0  0  0
  1  2  1  0
  2  3  2  0
  3  4  1  0
  4  5  2  0
  5  6  1  0
  6  7  1  0
  7  8  1  0
  8  9  2  0
  8 10  1  0
  8 11  1  0
  5 12  1  0
 12 13  1  0
 13 14  2  0
 12 15  2  0
 15 16  1  0
 15  2  1  0
  1 17  1  0
  1 18  1  0
  1 19  1  0
  4 20  1  0
  6 21  1  0
  6 22  1  0
 10 23  1  0
 11 24  1  0
 13 25  1  0
 16 26  1  0
M  END
$$$$

     RDKit          3D

 26 26  0  0  0  0  0  0  0  0999 V2000
   -3.1621   -2.1835   -0.2663 C   0  0  0  0  0  0  0  0  0  0  0  0
   -1.9824   -1.2790   -0.0359 C   0  0  0  0  0  0  0  0  0  0  0  0
   -0.8855   -1.6971    0.5928 N   0  0  0  0  0  0  0  0  0  0  0  0
    0.1540   -0.8563    0.7808 C   0  0  0  0  0  0  0  0  0  0  0  0
    0.1016    0.4398    0.3284 C   0  0  0  0  0  0  0  0  0  0  0  0
    1.2073    1.3796    0.5433 C   0  0  0  0  0  0  0  0  0  0  0  0
    2.3309    0.8764    1.1297 O   0  0  0  0  0  0  0  0  0  0  0  0
    3.1535   -0.2647    0.2003 P   0  0  0  0  0  5  0  0  0  0  0  0
    2.3183   -0.7643   -0.9659 O   0  0  0  0  0  0  0  0  0  0  0  0
    3.6914   -1.5631    1.1401 O   0  0  0  0  0  0  0  0  0  0  0  0
    4.5801    0.4566   -0.4419 O   0  0  0  0  0  0  0  0  0  0  0  0
   -1.0339    0.9240   -0.3377 C   0  0  0  0  0  0  0  0  0  0  0  0
   -1.1443    2.2882   -0.8238 C   0  0  0  0  0  0  0  0  0  0  0  0
   -0.2562    3.1460   -0.7045 O   0  0  0  0  0  0  0  0  0  0  0  0
   -2.0772    0.0224   -0.5069 C   0  0  0  0  0  0  0  0  0  0  0  0
   -3.2352    0.4101   -1.1523 O   0  0  0  0  0  0  0  0  0  0  0  0
   -3.4663   -2.1499   -1.3448 H   0  0  0  0  0  0  0  0  0  0  0  0
   -3.9651   -1.8622    0.4114 H   0  0  0  0  0  0  0  0  0  0  0  0
   -2.8401   -3.2286   -0.0786 H   0  0  0  0  0  0  0  0  0  0  0  0
    1.0392   -1.2274    1.3378 H   0  0  0  0  0  0  0  0  0  0  0  0
    0.8340    2.2677    1.1189 H   0  0  0  0  0  0  0  0  0  0  0  0
    1.5187    1.8321   -0.4618 H   0  0  0  0  0  0  0  0  0  0  0  0
    3.4354   -1.3602    2.0747 H   0  0  0  0  0  0  0  0  0  0  0  0
    5.2049    0.5221    0.3295 H   0  0  0  0  0  0  0  0  0  0  0  0
   -2.0466    2.5949   -1.3223 H   0  0  0  0  0  0  0  0  0  0  0  0
   -3.4743    1.2764   -1.5449 H   0  0  0  0  0  0  0  0  0  0  0  0
  1  2  1  0
  2  3  2  0
  3  4  1  0
  4  5  2  0
  5  6  1  0
  6  7  1  0
  7  8  1  0
  8  9  2  0
  8 10  1  0
  8 11  1  0
  5 12  1  0
 12 13  1  0
 13 14  2  0
 12 15  2  0
 15 16  1  0
 15  2  1  0
  1 17  1  0
  1 18  1  0
  1 19  1  0
  4 20  1  0
  6 21  1  0
  6 22  1  0
 10 23  1  0
 11 24  1  0
 13 25  1  0
 16 26  1  0
M  END
$$$$

     RDKit          3D

 26 26  0  0  0  0  0  0  0  0999 V2000
   -3.9961   -0.7604   -1.3856 C   0  0  0  0  0  0  0  0  0  0  0  0
   -2.5925   -0.5144   -0.9806 C   0  0  0  0  0  0  0  0  0  0  0  0
   -1.5677   -1.0335   -1.6217 N   0  0  0  0  0  0  0  0  0  0  0  0
   -0.2781   -0.8060   -1.2477 C   0  0  0  0  0  0  0  0  0  0  0  0
   -0.0083   -0.0168   -0.1749 C   0  0  0  0  0  0  0  0  0  0  0  0
    1.3690    0.2472    0.2528 C   0  0  0  0  0  0  0  0  0  0  0  0
    2.2391   -0.4181   -0.5927 O   0  0  0  0  0  0  0  0  0  0  0  0
    3.8541   -0.1831   -0.1911 P   0  0  0  0  0  5  0  0  0  0  0  0
    4.1277    1.3072   -0.2751 O   0  0  0  0  0  0  0  0  0  0  0  0
    4.7811   -1.0084   -1.3659 O   0  0  0  0  0  0  0  0  0  0  0  0
    4.1922   -0.7799    1.3580 O   0  0  0  0  0  0  0  0  0  0  0  0
   -1.0528    0.5567    0.5382 C   0  0  0  0  0  0  0  0  0  0  0  0
   -0.7226    1.4023    1.6897 C   0  0  0  0  0  0  0  0  0  0  0  0
   -1.5351    1.9815    2.4231 O   0  0  0  0  0  0  0  0  0  0  0  0
   -2.3472    0.3080    0.1354 C   0  0  0  0  0  0  0  0  0  0  0  0
   -3.4253    0.8236    0.7691 O   0  0  0  0  0  0  0  0  0  0  0  0
   -4.6821    0.0333   -1.0091 H   0  0  0  0  0  0  0  0  0  0  0  0
   -4.0221   -0.6826   -2.4982 H   0  0  0  0  0  0  0  0  0  0  0  0
   -4.3194   -1.7783   -1.1317 H   0  0  0  0  0  0  0  0  0  0  0  0
    0.5427   -1.2627   -1.8161 H   0  0  0  0  0  0  0  0  0  0  0  0
    1.5369   -0.0592    1.3269 H   0  0  0  0  0  0  0  0  0  0  0  0
    1.5677    1.3522    0.2496 H   0  0  0  0  0  0  0  0  0  0  0  0
    4.2926   -1.0172   -2.2446 H   0  0  0  0  0  0  0  0  0  0  0  0
    5.1431   -0.6598    1.5328 H   0  0  0  0  0  0  0  0  0  0  0  0
    0.3299    1.5608    1.9587 H   0  0  0  0  0  0  0  0  0  0  0  0
   -3.4269    1.4078    1.5524 H   0  0  0  0  0  0  0  0  0  0  0  0
  1  2  1  0
  2  3  2  0
  3  4  1  0
  4  5  2  0
  5  6  1  0
  6  7  1  0
  7  8  1  0
  8  9  2  0
  8 10  1  0
  8 11  1  0
  5 12  1  0
 12 13  1  0
 13 14  2  0
 12 15  2  0
 15 16  1  0
 15  2  1  0
  1 17  1  0
  1 18  1  0
  1 19  1  0
  4 20  1  0
  6 21  1  0
  6 22  1  0
 10 23  1  0
 11 24  1  0
 13 25  1  0
 16 26  1  0
M  END
$$$$

     RDKit          3D

 26 26  0  0  0  0  0  0  0  0999 V2000
   -4.1838    0.5771    0.5340 C   0  0  0  0  0  0  0  0  0  0  0  0
   -2.7137    0.3968    0.3973 C   0  0  0  0  0  0  0  0  0  0  0  0
   -1.8874    0.9866    1.2579 N   0  0  0  0  0  0  0  0  0  0  0  0
   -0.5696    0.8290    1.1409 C   0  0  0  0  0  0  0  0  0  0  0  0
   -0.0070    0.0696    0.1522 C   0  0  0  0  0  0  0  0  0  0  0  0
    1.4457   -0.0788    0.0576 C   0  0  0  0  0  0  0  0  0  0  0  0
    2.1010    0.6432    1.0850 O   0  0  0  0  0  0  0  0  0  0  0  0
    3.7547    0.3778    0.8465 P   0  0  0  0  0  5  0  0  0  0  0  0
    4.4958    0.5851    2.1449 O   0  0  0  0  0  0  0  0  0  0  0  0
    4.2596    1.5036   -0.3345 O   0  0  0  0  0  0  0  0  0  0  0  0
    3.9309   -1.2013    0.2673 O   0  0  0  0  0  0  0  0  0  0  0  0
   -0.8240   -0.5587   -0.7600 C   0  0  0  0  0  0  0  0  0  0  0  0
   -0.2836   -1.3803   -1.8347 C   0  0  0  0  0  0  0  0  0  0  0  0
    0.9584   -1.5236   -1.9380 O   0  0  0  0  0  0  0  0  0  0  0  0
   -2.1929   -0.3766   -0.6135 C   0  0  0  0  0  0  0  0  0  0  0  0
   -3.1006   -0.9686   -1.4831 O   0  0  0  0  0  0  0  0  0  0  0  0
   -4.4010    1.2680    1.3644 H   0  0  0  0  0  0  0  0  0  0  0  0
   -4.6690   -0.4005    0.7768 H   0  0  0  0  0  0  0  0  0  0  0  0
   -4.5911    0.9826   -0.4202 H   0  0  0  0  0  0  0  0  0  0  0  0
    0.1243    1.3122    1.8472 H   0  0  0  0  0  0  0  0  0  0  0  0
    1.8884    0.3287   -0.8790 H   0  0  0  0  0  0  0  0  0  0  0  0
    1.7879   -1.1341    0.2018 H   0  0  0  0  0  0  0  0  0  0  0  0
    4.3433    2.3803    0.1254 H   0  0  0  0  0  0  0  0  0  0  0  0
    4.0750   -1.1925   -0.7321 H   0  0  0  0  0  0  0  0  0  0  0  0
   -0.8949   -1.8828   -2.5611 H   0  0  0  0  0  0  0  0  0  0  0  0
   -2.8464   -1.5427   -2.2431 H   0  0  0  0  0  0  0  0  0  0  0  0
  1  2  1  0
  2  3  2  0
  3  4  1  0
  4  5  2  0
  5  6  1  0
  6  7  1  0
  7  8  1  0
  8  9  2  0
  8 10  1  0
  8 11  1  0
  5 12  1  0
 12 13  1  0
 13 14  2  0
 12 15  2  0
 15 16  1  0
 15  2  1  0
  1 17  1  0
  1 18  1  0
  1 19  1  0
  4 20  1  0
  6 21  1  0
  6 22  1  0
 10 23  1  0
 11 24  1  0
 13 25  1  0
 16 26  1  0
M  END
$$$$

     RDKit          3D

 26 26  0  0  0  0  0  0  0  0999 V2000
   -2.8887    0.8796    2.3909 C   0  0  0  0  0  0  0  0  0  0  0  0
   -1.7720    0.4105    1.5290 C   0  0  0  0  0  0  0  0  0  0  0  0
   -0.4950    0.4970    1.8697 N   0  0  0  0  0  0  0  0  0  0  0  0
    0.5218    0.0762    1.0978 C   0  0  0  0  0  0  0  0  0  0  0  0
    0.2520   -0.4757   -0.1143 C   0  0  0  0  0  0  0  0  0  0  0  0
    1.2761   -0.9974   -1.0333 C   0  0  0  0  0  0  0  0  0  0  0  0
    2.5528   -0.7974   -0.6236 O   0  0  0  0  0  0  0  0  0  0  0  0
    3.0652    0.7926   -0.5514 P   0  0  0  0  0  5  0  0  0  0  0  0
    1.9603    1.8040   -0.5901 O   0  0  0  0  0  0  0  0  0  0  0  0
    4.0879    1.1616   -1.8711 O   0  0  0  0  0  0  0  0  0  0  0  0
    4.0131    1.0017    0.8293 O   0  0  0  0  0  0  0  0  0  0  0  0
   -1.0951   -0.5899   -0.5190 C   0  0  0  0  0  0  0  0  0  0  0  0
   -1.3534   -1.1977   -1.8169 C   0  0  0  0  0  0  0  0  0  0  0  0
   -2.4866   -1.3605   -2.2841 O   0  0  0  0  0  0  0  0  0  0  0  0
   -2.1044   -0.1544    0.2859 C   0  0  0  0  0  0  0  0  0  0  0  0
   -3.4247   -0.2445   -0.0661 O   0  0  0  0  0  0  0  0  0  0  0  0
   -3.5725    1.4508    1.7450 H   0  0  0  0  0  0  0  0  0  0  0  0
   -3.3782    0.0443    2.9130 H   0  0  0  0  0  0  0  0  0  0  0  0
   -2.4368    1.5741    3.1357 H   0  0  0  0  0  0  0  0  0  0  0  0
    1.5524    0.1531    1.4620 H   0  0  0  0  0  0  0  0  0  0  0  0
    1.1163   -0.5524   -2.0763 H   0  0  0  0  0  0  0  0  0  0  0  0
    1.1346   -2.1078   -1.1557 H   0  0  0  0  0  0  0  0  0  0  0  0
    3.9067    0.5752   -2.6445 H   0  0  0  0  0  0  0  0  0  0  0  0
    3.9651    0.1966    1.4018 H   0  0  0  0  0  0  0  0  0  0  0  0
   -0.5345   -1.5505   -2.4596 H   0  0  0  0  0  0  0  0  0  0  0  0
   -3.8621   -0.5892   -0.8541 H   0  0  0  0  0  0  0  0  0  0  0  0
  1  2  1  0
  2  3  2  0
  3  4  1  0
  4  5  2  0
  5  6  1  0
  6  7  1  0
  7  8  1  0
  8  9  2  0
  8 10  1  0
  8 11  1  0
  5 12  1  0
 12 13  1  0
 13 14  2  0
 12 15  2  0
 15 16  1  0
 15  2  1  0
  1 17  1  0
  1 18  1  0
  1 19  1  0
  4 20  1  0
  6 21  1  0
  6 22  1  0
 10 23  1  0
 11 24  1  0
 13 25  1  0
 16 26  1  0
M  END
$$$$

     RDKit          3D

 26 26  0  0  0  0  0  0  0  0999 V2000
   -4.0845   -0.2983   -0.8295 C   0  0  0  0  0  0  0  0  0  0  0  0
   -2.6763   -0.4031   -0.4519 C   0  0  0  0  0  0  0  0  0  0  0  0
   -1.9352   -1.5195   -0.7179 N   0  0  0  0  0  0  0  0  0  0  0  0
   -0.6332   -1.6049   -0.4023 C   0  0  0  0  0  0  0  0  0  0  0  0
    0.0174   -0.5912    0.1972 C   0  0  0  0  0  0  0  0  0  0  0  0
    1.4568   -0.5505    0.5772 C   0  0  0  0  0  0  0  0  0  0  0  0
    2.1376   -0.6368   -0.6467 O   0  0  0  0  0  0  0  0  0  0  0  0
    3.7375   -0.1997   -0.6172 P   0  0  0  0  0  5  0  0  0  0  0  0
    4.1065    0.0742   -2.1197 O   0  0  0  0  0  0  0  0  0  0  0  0
    3.9884    1.3022    0.1227 O   0  0  0  0  0  0  0  0  0  0  0  0
    4.7324   -1.3271    0.0130 O   0  0  0  0  0  0  0  0  0  0  0  0
   -0.7330    0.5527    0.4695 C   0  0  0  0  0  0  0  0  0  0  0  0
   -0.0880    1.7514    0.8942 C   0  0  0  0  0  0  0  0  0  0  0  0
   -0.6833    2.8819    0.9907 O   0  0  0  0  0  0  0  0  0  0  0  0
   -2.0588    0.6593    0.1580 C   0  0  0  0  0  0  0  0  0  0  0  0
   -2.7938    1.7876    0.4613 O   0  0  0  0  0  0  0  0  0  0  0  0
   -4.2601    0.2495   -1.8279 H   0  0  0  0  0  0  0  0  0  0  0  0
   -4.7302    0.1966   -0.0872 H   0  0  0  0  0  0  0  0  0  0  0  0
   -4.5109   -1.3124   -1.0496 H   0  0  0  0  0  0  0  0  0  0  0  0
   -0.0827   -2.5215   -0.6978 H   0  0  0  0  0  0  0  0  0  0  0  0
    1.8592    0.0795    1.3386 H   0  0  0  0  0  0  0  0  0  0  0  0
    1.7619   -1.6420    0.9708 H   0  0  0  0  0  0  0  0  0  0  0  0
    3.8350    1.1947    1.0879 H   0  0  0  0  0  0  0  0  0  0  0  0
    4.4394   -1.7645    0.8037 H   0  0  0  0  0  0  0  0  0  0  0  0
    0.9809    1.7366    1.1733 H   0  0  0  0  0  0  0  0  0  0  0  0
   -3.7827    1.9050    0.1898 H   0  0  0  0  0  0  0  0  0  0  0  0
  1  2  1  0
  2  3  2  0
  3  4  1  0
  4  5  2  0
  5  6  1  0
  6  7  1  0
  7  8  1  0
  8  9  2  0
  8 10  1  0
  8 11  1  0
  5 12  1  0
 12 13  1  0
 13 14  2  0
 12 15  2  0
 15 16  1  0
 15  2  1  0
  1 17  1  0
  1 18  1  0
  1 19  1  0
  4 20  1  0
  6 21  1  0
  6 22  1  0
 10 23  1  0
 11 24  1  0
 13 25  1  0
 16 26  1  0
M  END
$$$$

     RDKit          3D

 26 26  0  0  0  0  0  0  0  0999 V2000
    4.0154    1.5212    0.1198 C   0  0  0  0  0  0  0  0  0  0  0  0
    2.5994    1.0752    0.0562 C   0  0  0  0  0  0  0  0  0  0  0  0
    1.6295    1.8750   -0.3667 N   0  0  0  0  0  0  0  0  0  0  0  0
    0.3484    1.4525   -0.4177 C   0  0  0  0  0  0  0  0  0  0  0  0
   -0.0312    0.1942   -0.0439 C   0  0  0  0  0  0  0  0  0  0  0  0
   -1.4400   -0.2685   -0.1007 C   0  0  0  0  0  0  0  0  0  0  0  0
   -2.2391    0.7606   -0.5761 O   0  0  0  0  0  0  0  0  0  0  0  0
   -3.8517    0.3434   -0.6798 P   0  0  0  0  0  5  0  0  0  0  0  0
   -4.5512    1.0823   -1.8184 O   0  0  0  0  0  0  0  0  0  0  0  0
   -4.6558    0.8281    0.7472 O   0  0  0  0  0  0  0  0  0  0  0  0
   -4.1058   -1.2941   -0.9264 O   0  0  0  0  0  0  0  0  0  0  0  0
    0.9578   -0.6913    0.4113 C   0  0  0  0  0  0  0  0  0  0  0  0
    0.5613   -2.0242    0.8081 C   0  0  0  0  0  0  0  0  0  0  0  0
    1.3496   -2.8864    1.2247 O   0  0  0  0  0  0  0  0  0  0  0  0
    2.2706   -0.2322    0.4546 C   0  0  0  0  0  0  0  0  0  0  0  0
    3.2891   -1.0196    0.8807 O   0  0  0  0  0  0  0  0  0  0  0  0
    4.5240    0.9794    0.9363 H   0  0  0  0  0  0  0  0  0  0  0  0
    4.0826    2.6241    0.2299 H   0  0  0  0  0  0  0  0  0  0  0  0
    4.5142    1.2484   -0.8342 H   0  0  0  0  0  0  0  0  0  0  0  0
   -0.4011    2.1458   -0.7703 H   0  0  0  0  0  0  0  0  0  0  0  0
   -1.8122   -0.5002    0.9400 H   0  0  0  0  0  0  0  0  0  0  0  0
   -1.5669   -1.1925   -0.6756 H   0  0  0  0  0  0  0  0  0  0  0  0
   -4.6197    0.0752    1.3854 H   0  0  0  0  0  0  0  0  0  0  0  0
   -3.7594   -1.8708   -0.2173 H   0  0  0  0  0  0  0  0  0  0  0  0
   -0.4766   -2.2962    0.7427 H   0  0  0  0  0  0  0  0  0  0  0  0
    3.3688   -1.9294    1.2052 H   0  0  0  0  0  0  0  0  0  0  0  0
  1  2  1  0
  2  3  2  0
  3  4  1  0
  4  5  2  0
  5  6  1  0
  6  7  1  0
  7  8  1  0
  8  9  2  0
  8 10  1  0
  8 11  1  0
  5 12  1  0
 12 13  1  0
 13 14  2  0
 12 15  2  0
 15 16  1  0
 15  2  1  0
  1 17  1  0
  1 18  1  0
  1 19  1  0
  4 20  1  0
  6 21  1  0
  6 22  1  0
 10 23  1  0
 11 24  1  0
 13 25  1  0
 16 26  1  0
M  END
$$$$

     RDKit          3D

 26 26  0  0  0  0  0  0  0  0999 V2000
   -3.1208    2.0224    0.2037 C   0  0  0  0  0  0  0  0  0  0  0  0
   -1.9736    1.1243   -0.0046 C   0  0  0  0  0  0  0  0  0  0  0  0
   -0.9218    1.5513   -0.6905 N   0  0  0  0  0  0  0  0  0  0  0  0
    0.1676    0.7540   -0.9099 C   0  0  0  0  0  0  0  0  0  0  0  0
    0.1600   -0.5248   -0.3987 C   0  0  0  0  0  0  0  0  0  0  0  0
    1.2839   -1.4274   -0.6210 C   0  0  0  0  0  0  0  0  0  0  0  0
    2.3720   -0.9692   -1.2801 O   0  0  0  0  0  0  0  0  0  0  0  0
    3.2257    0.2588   -0.5505 P   0  0  0  0  0  5  0  0  0  0  0  0
    4.5590   -0.3251   -0.0472 O   0  0  0  0  0  0  0  0  0  0  0  0
    2.4628    0.9550    0.7701 O   0  0  0  0  0  0  0  0  0  0  0  0
    3.6816    1.5013   -1.6160 O   0  0  0  0  0  0  0  0  0  0  0  0
   -0.9366   -1.0251    0.3373 C   0  0  0  0  0  0  0  0  0  0  0  0
   -0.8319   -2.3786    0.8178 C   0  0  0  0  0  0  0  0  0  0  0  0
   -1.7671   -2.8820    1.4741 O   0  0  0  0  0  0  0  0  0  0  0  0
   -1.9972   -0.1815    0.5239 C   0  0  0  0  0  0  0  0  0  0  0  0
   -3.1036   -0.5790    1.2245 O   0  0  0  0  0  0  0  0  0  0  0  0
   -2.8001    2.8480    0.9033 H   0  0  0  0  0  0  0  0  0  0  0  0
   -3.3359    2.5214   -0.7792 H   0  0  0  0  0  0  0  0  0  0  0  0
   -4.0199    1.5137    0.5835 H   0  0  0  0  0  0  0  0  0  0  0  0
    0.9898    1.1642   -1.4989 H   0  0  0  0  0  0  0  0  0  0  0  0
    0.8942   -2.3525   -1.1467 H   0  0  0  0  0  0  0  0  0  0  0  0
    1.6497   -1.8501    0.3713 H   0  0  0  0  0  0  0  0  0  0  0  0
    3.1449    1.4992    1.2475 H   0  0  0  0  0  0  0  0  0  0  0  0
    3.5435    1.1954   -2.5530 H   0  0  0  0  0  0  0  0  0  0  0  0
    0.0301   -3.0120    0.6437 H   0  0  0  0  0  0  0  0  0  0  0  0
   -3.3565   -1.4015    1.6743 H   0  0  0  0  0  0  0  0  0  0  0  0
  1  2  1  0
  2  3  2  0
  3  4  1  0
  4  5  2  0
  5  6  1  0
  6  7  1  0
  7  8  1  0
  8  9  2  0
  8 10  1  0
  8 11  1  0
  5 12  1  0
 12 13  1  0
 13 14  2  0
 12 15  2  0
 15 16  1  0
 15  2  1  0
  1 17  1  0
  1 18  1  0
  1 19  1  0
  4 20  1  0
  6 21  1  0
  6 22  1  0
 10 23  1  0
 11 24  1  0
 13 25  1  0
 16 26  1  0
M  END
$$$$

     RDKit          3D

 26 26  0  0  0  0  0  0  0  0999 V2000
   -3.9336   -1.3783    0.1044 C   0  0  0  0  0  0  0  0  0  0  0  0
   -2.5334   -0.8713    0.0674 C   0  0  0  0  0  0  0  0  0  0  0  0
   -1.5393   -1.7141    0.3788 N   0  0  0  0  0  0  0  0  0  0  0  0
   -0.2748   -1.2683    0.3486 C   0  0  0  0  0  0  0  0  0  0  0  0
    0.0683    0.0216    0.0121 C   0  0  0  0  0  0  0  0  0  0  0  0
    1.4913    0.4146    0.0087 C   0  0  0  0  0  0  0  0  0  0  0  0
    2.3226   -0.6451    0.3688 O   0  0  0  0  0  0  0  0  0  0  0  0
    3.9138   -0.0705    0.3270 P   0  0  0  0  0  5  0  0  0  0  0  0
    3.8999    1.3464    0.8015 O   0  0  0  0  0  0  0  0  0  0  0  0
    4.8332   -1.0568    1.3428 O   0  0  0  0  0  0  0  0  0  0  0  0
    4.5208   -0.1373   -1.2652 O   0  0  0  0  0  0  0  0  0  0  0  0
   -0.9250    0.9174   -0.3141 C   0  0  0  0  0  0  0  0  0  0  0  0
   -0.6347    2.2905   -0.6779 C   0  0  0  0  0  0  0  0  0  0  0  0
   -1.5613    3.0753   -0.9680 O   0  0  0  0  0  0  0  0  0  0  0  0
   -2.2238    0.4229   -0.2729 C   0  0  0  0  0  0  0  0  0  0  0  0
   -3.2581    1.3124   -0.6007 O   0  0  0  0  0  0  0  0  0  0  0  0
   -4.6010   -0.5952    0.5206 H   0  0  0  0  0  0  0  0  0  0  0  0
   -4.2574   -1.6716   -0.9121 H   0  0  0  0  0  0  0  0  0  0  0  0
   -3.9436   -2.2771    0.7524 H   0  0  0  0  0  0  0  0  0  0  0  0
    0.5443   -1.9598    0.6044 H   0  0  0  0  0  0  0  0  0  0  0  0
    1.8360    0.7297   -1.0190 H   0  0  0  0  0  0  0  0  0  0  0  0
    1.6917    1.2497    0.7061 H   0  0  0  0  0  0  0  0  0  0  0  0
    4.5808   -2.0100    1.2461 H   0  0  0  0  0  0  0  0  0  0  0  0
    3.8379    0.1734   -1.9071 H   0  0  0  0  0  0  0  0  0  0  0  0
    0.3777    2.6440   -0.7011 H   0  0  0  0  0  0  0  0  0  0  0  0
   -4.2326    1.0575   -0.6034 H   0  0  0  0  0  0  0  0  0  0  0  0
  1  2  1  0
  2  3  2  0
  3  4  1  0
  4  5  2  0
  5  6  1  0
  6  7  1  0
  7  8  1  0
  8  9  2  0
  8 10  1  0
  8 11  1  0
  5 12  1  0
 12 13  1  0
 13 14  2  0
 12 15  2  0
 15 16  1  0
 15  2  1  0
  1 17  1  0
  1 18  1  0
  1 19  1  0
  4 20  1  0
  6 21  1  0
  6 22  1  0
 10 23  1  0
 11 24  1  0
 13 25  1  0
 16 26  1  0
M  END
$$$$

     RDKit          3D

 26 26  0  0  0  0  0  0  0  0999 V2000
   -3.9520   -1.4902    0.0274 C   0  0  0  0  0  0  0  0  0  0  0  0
   -2.5690   -0.9862   -0.0199 C   0  0  0  0  0  0  0  0  0  0  0  0
   -1.5194   -1.7985   -0.0993 N   0  0  0  0  0  0  0  0  0  0  0  0
   -0.2649   -1.3248   -0.1416 C   0  0  0  0  0  0  0  0  0  0  0  0
    0.0207    0.0110   -0.1064 C   0  0  0  0  0  0  0  0  0  0  0  0
    1.4351    0.5282   -0.1546 C   0  0  0  0  0  0  0  0  0  0  0  0
    2.2614   -0.5530   -0.2333 O   0  0  0  0  0  0  0  0  0  0  0  0
    3.8804   -0.2426   -0.2988 P   0  0  0  0  0  5  0  0  0  0  0  0
    4.2490    0.1777   -1.7198 O   0  0  0  0  0  0  0  0  0  0  0  0
    4.7158   -1.7109   -0.0242 O   0  0  0  0  0  0  0  0  0  0  0  0
    4.4120    0.9451    0.7540 O   0  0  0  0  0  0  0  0  0  0  0  0
   -1.0475    0.9018   -0.0231 C   0  0  0  0  0  0  0  0  0  0  0  0
   -0.7407    2.3015    0.0134 C   0  0  0  0  0  0  0  0  0  0  0  0
   -1.6080    3.1861    0.0869 O   0  0  0  0  0  0  0  0  0  0  0  0
   -2.3256    0.4009    0.0192 C   0  0  0  0  0  0  0  0  0  0  0  0
   -3.4479    1.1932    0.1015 O   0  0  0  0  0  0  0  0  0  0  0  0
   -3.9737   -2.4164   -0.6137 H   0  0  0  0  0  0  0  0  0  0  0  0
   -4.6335   -0.7157   -0.3513 H   0  0  0  0  0  0  0  0  0  0  0  0
   -4.2019   -1.8309    1.0616 H   0  0  0  0  0  0  0  0  0  0  0  0
    0.5808   -2.0096   -0.2068 H   0  0  0  0  0  0  0  0  0  0  0  0
    1.6073    1.1906    0.7163 H   0  0  0  0  0  0  0  0  0  0  0  0
    1.5398    1.1794   -1.0548 H   0  0  0  0  0  0  0  0  0  0  0  0
    4.2385   -2.2712    0.6388 H   0  0  0  0  0  0  0  0  0  0  0  0
    4.5984    0.4855    1.6327 H   0  0  0  0  0  0  0  0  0  0  0  0
    0.2922    2.6795   -0.0218 H   0  0  0  0  0  0  0  0  0  0  0  0
   -3.5472    2.1695    0.1418 H   0  0  0  0  0  0  0  0  0  0  0  0
  1  2  1  0
  2  3  2  0
  3  4  1  0
  4  5  2  0
  5  6  1  0
  6  7  1  0
  7  8  1  0
  8  9  2  0
  8 10  1  0
  8 11  1  0
  5 12  1  0
 12 13  1  0
 13 14  2  0
 12 15  2  0
 15 16  1  0
 15  2  1  0
  1 17  1  0
  1 18  1  0
  1 19  1  0
  4 20  1  0
  6 21  1  0
  6 22  1  0
 10 23  1  0
 11 24  1  0
 13 25  1  0
 16 26  1  0
M  END
$$$$

     RDKit          3D

 26 26  0  0  0  0  0  0  0  0999 V2000
   -4.0818    0.9246    0.1571 C   0  0  0  0  0  0  0  0  0  0  0  0
   -2.6291    0.6152    0.1335 C   0  0  0  0  0  0  0  0  0  0  0  0
   -1.7076    1.5779    0.3864 N   0  0  0  0  0  0  0  0  0  0  0  0
   -0.4005    1.3189    0.3695 C   0  0  0  0  0  0  0  0  0  0  0  0
    0.0583    0.0461    0.0903 C   0  0  0  0  0  0  0  0  0  0  0  0
    1.4885   -0.2998    0.0513 C   0  0  0  0  0  0  0  0  0  0  0  0
    2.2916    0.8008    0.3394 O   0  0  0  0  0  0  0  0  0  0  0  0
    3.9220    0.3574    0.2831 P   0  0  0  0  0  5  0  0  0  0  0  0
    4.1466   -0.9485    1.0370 O   0  0  0  0  0  0  0  0  0  0  0  0
    4.4505    0.1099   -1.2927 O   0  0  0  0  0  0  0  0  0  0  0  0
    4.7949    1.5938    1.0428 O   0  0  0  0  0  0  0  0  0  0  0  0
   -0.8646   -0.9391   -0.1677 C   0  0  0  0  0  0  0  0  0  0  0  0
   -0.4622   -2.3033   -0.4660 C   0  0  0  0  0  0  0  0  0  0  0  0
    0.7260   -2.6772   -0.5116 O   0  0  0  0  0  0  0  0  0  0  0  0
   -2.2185   -0.6597   -0.1478 C   0  0  0  0  0  0  0  0  0  0  0  0
   -3.1605   -1.6413   -0.4058 O   0  0  0  0  0  0  0  0  0  0  0  0
   -4.2848    1.8844    0.6954 H   0  0  0  0  0  0  0  0  0  0  0  0
   -4.6656    0.1404    0.7022 H   0  0  0  0  0  0  0  0  0  0  0  0
   -4.5003    0.9944   -0.8844 H   0  0  0  0  0  0  0  0  0  0  0  0
    0.3465    2.0882    0.5720 H   0  0  0  0  0  0  0  0  0  0  0  0
    1.7229   -1.0616    0.8178 H   0  0  0  0  0  0  0  0  0  0  0  0
    1.8038   -0.6958   -0.9304 H   0  0  0  0  0  0  0  0  0  0  0  0
    4.1746    0.8847   -1.8553 H   0  0  0  0  0  0  0  0  0  0  0  0
    4.4160    2.4454    0.7355 H   0  0  0  0  0  0  0  0  0  0  0  0
   -1.2258   -3.0628   -0.6651 H   0  0  0  0  0  0  0  0  0  0  0  0
   -4.1408   -1.4928   -0.4038 H   0  0  0  0  0  0  0  0  0  0  0  0
  1  2  1  0
  2  3  2  0
  3  4  1  0
  4  5  2  0
  5  6  1  0
  6  7  1  0
  7  8  1  0
  8  9  2  0
  8 10  1  0
  8 11  1  0
  5 12  1  0
 12 13  1  0
 13 14  2  0
 12 15  2  0
 15 16  1  0
 15  2  1  0
  1 17  1  0
  1 18  1  0
  1 19  1  0
  4 20  1  0
  6 21  1  0
  6 22  1  0
 10 23  1  0
 11 24  1  0
 13 25  1  0
 16 26  1  0
M  END
$$$$

     RDKit          3D

 26 26  0  0  0  0  0  0  0  0999 V2000
    4.2747    0.0079   -0.1250 C   0  0  0  0  0  0  0  0  0  0  0  0
    2.7916   -0.1231   -0.1117 C   0  0  0  0  0  0  0  0  0  0  0  0
    2.1510   -1.0458   -0.8236 N   0  0  0  0  0  0  0  0  0  0  0  0
    0.8125   -1.1192   -0.7744 C   0  0  0  0  0  0  0  0  0  0  0  0
    0.0643   -0.2854   -0.0221 C   0  0  0  0  0  0  0  0  0  0  0  0
   -1.4036   -0.3748    0.0244 C   0  0  0  0  0  0  0  0  0  0  0  0
   -1.8318   -1.4115   -0.7993 O   0  0  0  0  0  0  0  0  0  0  0  0
   -3.5309   -1.4454   -0.6879 P   0  0  0  0  0  5  0  0  0  0  0  0
   -4.0516   -2.8496   -0.6254 O   0  0  0  0  0  0  0  0  0  0  0  0
   -4.1385   -0.6852   -2.0844 O   0  0  0  0  0  0  0  0  0  0  0  0
   -4.0651   -0.5784    0.6622 O   0  0  0  0  0  0  0  0  0  0  0  0
    0.6869    0.7127    0.7538 C   0  0  0  0  0  0  0  0  0  0  0  0
   -0.1534    1.5964    1.5550 C   0  0  0  0  0  0  0  0  0  0  0  0
    0.2554    2.5157    2.2831 O   0  0  0  0  0  0  0  0  0  0  0  0
    2.0515    0.7720    0.6907 C   0  0  0  0  0  0  0  0  0  0  0  0
    2.7498    1.7045    1.4060 O   0  0  0  0  0  0  0  0  0  0  0  0
    4.6704    0.1094   -1.1548 H   0  0  0  0  0  0  0  0  0  0  0  0
    4.6810   -0.9422    0.2999 H   0  0  0  0  0  0  0  0  0  0  0  0
    4.6148    0.8190    0.5219 H   0  0  0  0  0  0  0  0  0  0  0  0
    0.2846   -1.8814   -1.3626 H   0  0  0  0  0  0  0  0  0  0  0  0
   -1.8976    0.5513   -0.3380 H   0  0  0  0  0  0  0  0  0  0  0  0
   -1.6863   -0.5800    1.0825 H   0  0  0  0  0  0  0  0  0  0  0  0
   -4.3962    0.2637   -1.8722 H   0  0  0  0  0  0  0  0  0  0  0  0
   -4.0947    0.3940    0.4929 H   0  0  0  0  0  0  0  0  0  0  0  0
   -1.2422    1.4811    1.5489 H   0  0  0  0  0  0  0  0  0  0  0  0
    2.4032    2.3943    2.0060 H   0  0  0  0  0  0  0  0  0  0  0  0
  1  2  1  0
  2  3  2  0
  3  4  1  0
  4  5  2  0
  5  6  1  0
  6  7  1  0
  7  8  1  0
  8  9  2  0
  8 10  1  0
  8 11  1  0
  5 12  1  0
 12 13  1  0
 13 14  2  0
 12 15  2  0
 15 16  1  0
 15  2  1  0
  1 17  1  0
  1 18  1  0
  1 19  1  0
  4 20  1  0
  6 21  1  0
  6 22  1  0
 10 23  1  0
 11 24  1  0
 13 25  1  0
 16 26  1  0
M  END
$$$$

     RDKit          3D

 26 26  0  0  0  0  0  0  0  0999 V2000
    4.0597    0.9193    0.4166 C   0  0  0  0  0  0  0  0  0  0  0  0
    2.6118    0.6160    0.3043 C   0  0  0  0  0  0  0  0  0  0  0  0
    1.7215    1.5034    0.7784 N   0  0  0  0  0  0  0  0  0  0  0  0
    0.4193    1.2549    0.6897 C   0  0  0  0  0  0  0  0  0  0  0  0
   -0.0242    0.0784    0.1072 C   0  0  0  0  0  0  0  0  0  0  0  0
   -1.4868   -0.1862    0.0124 C   0  0  0  0  0  0  0  0  0  0  0  0
   -2.1885    0.8931    0.5812 O   0  0  0  0  0  0  0  0  0  0  0  0
   -3.8472    0.5723    0.4631 P   0  0  0  0  0  5  0  0  0  0  0  0
   -4.3915    0.5158    1.8662 O   0  0  0  0  0  0  0  0  0  0  0  0
   -4.6638    1.8218   -0.3396 O   0  0  0  0  0  0  0  0  0  0  0  0
   -4.1063   -0.8904   -0.3373 O   0  0  0  0  0  0  0  0  0  0  0  0
    0.8792   -0.8402   -0.3830 C   0  0  0  0  0  0  0  0  0  0  0  0
    0.4557   -2.1077   -1.0106 C   0  0  0  0  0  0  0  0  0  0  0  0
   -0.7652   -2.3843   -1.1153 O   0  0  0  0  0  0  0  0  0  0  0  0
    2.2286   -0.5523   -0.2757 C   0  0  0  0  0  0  0  0  0  0  0  0
    3.1181   -1.4880   -0.7741 O   0  0  0  0  0  0  0  0  0  0  0  0
    4.5003    0.4086    1.3158 H   0  0  0  0  0  0  0  0  0  0  0  0
    4.6384    0.6267   -0.4603 H   0  0  0  0  0  0  0  0  0  0  0  0
    4.1984    2.0041    0.5870 H   0  0  0  0  0  0  0  0  0  0  0  0
   -0.2976    1.9870    1.0802 H   0  0  0  0  0  0  0  0  0  0  0  0
   -1.7775   -1.0926    0.5439 H   0  0  0  0  0  0  0  0  0  0  0  0
   -1.7386   -0.2716   -1.0801 H   0  0  0  0  0  0  0  0  0  0  0  0
   -4.1232    2.2048   -1.0585 H   0  0  0  0  0  0  0  0  0  0  0  0
   -4.7282   -1.4253    0.2109 H   0  0  0  0  0  0  0  0  0  0  0  0
    1.1870   -2.7860   -1.3739 H   0  0  0  0  0  0  0  0  0  0  0  0
    4.1206   -1.3812   -0.7486 H   0  0  0  0  0  0  0  0  0  0  0  0
  1  2  1  0
  2  3  2  0
  3  4  1  0
  4  5  2  0
  5  6  1  0
  6  7  1  0
  7  8  1  0
  8  9  2  0
  8 10  1  0
  8 11  1  0
  5 12  1  0
 12 13  1  0
 13 14  2  0
 12 15  2  0
 15 16  1  0
 15  2  1  0
  1 17  1  0
  1 18  1  0
  1 19  1  0
  4 20  1  0
  6 21  1  0
  6 22  1  0
 10 23  1  0
 11 24  1  0
 13 25  1  0
 16 26  1  0
M  END
$$$$

     RDKit          3D

 26 26  0  0  0  0  0  0  0  0999 V2000
   -3.9289    1.6087   -0.0816 C   0  0  0  0  0  0  0  0  0  0  0  0
   -2.5441    1.0736   -0.0889 C   0  0  0  0  0  0  0  0  0  0  0  0
   -1.4643    1.8570   -0.0038 N   0  0  0  0  0  0  0  0  0  0  0  0
   -0.2157    1.3631   -0.0112 C   0  0  0  0  0  0  0  0  0  0  0  0
    0.0409    0.0092   -0.1074 C   0  0  0  0  0  0  0  0  0  0  0  0
    1.4664   -0.4572   -0.1073 C   0  0  0  0  0  0  0  0  0  0  0  0
    2.3332    0.6334   -0.0055 O   0  0  0  0  0  0  0  0  0  0  0  0
    3.9345    0.0981   -0.0063 P   0  0  0  0  0  5  0  0  0  0  0  0
    4.2660   -0.6373   -1.2844 O   0  0  0  0  0  0  0  0  0  0  0  0
    4.2102   -1.0032    1.2680 O   0  0  0  0  0  0  0  0  0  0  0  0
    4.9343    1.4684    0.1690 O   0  0  0  0  0  0  0  0  0  0  0  0
   -1.0385   -0.8447   -0.1979 C   0  0  0  0  0  0  0  0  0  0  0  0
   -0.7719   -2.2572   -0.2990 C   0  0  0  0  0  0  0  0  0  0  0  0
    0.3795   -2.7372   -0.3080 O   0  0  0  0  0  0  0  0  0  0  0  0
   -2.3083   -0.3063   -0.1876 C   0  0  0  0  0  0  0  0  0  0  0  0
   -3.4308   -1.1113   -0.2755 O   0  0  0  0  0  0  0  0  0  0  0  0
   -4.0264    2.5253    0.5251 H   0  0  0  0  0  0  0  0  0  0  0  0
   -4.2882    1.8147   -1.1188 H   0  0  0  0  0  0  0  0  0  0  0  0
   -4.6542    0.8724    0.3427 H   0  0  0  0  0  0  0  0  0  0  0  0
    0.6625    2.0262    0.0601 H   0  0  0  0  0  0  0  0  0  0  0  0
    1.6772   -0.9684   -1.0479 H   0  0  0  0  0  0  0  0  0  0  0  0
    1.6801   -1.1399    0.7390 H   0  0  0  0  0  0  0  0  0  0  0  0
    3.4780   -0.9185    1.9276 H   0  0  0  0  0  0  0  0  0  0  0  0
    4.5214    2.0916    0.8193 H   0  0  0  0  0  0  0  0  0  0  0  0
   -1.5806   -2.9611   -0.3720 H   0  0  0  0  0  0  0  0  0  0  0  0
   -3.3325   -2.0994   -0.3478 H   0  0  0  0  0  0  0  0  0  0  0  0
  1  2  1  0
  2  3  2  0
  3  4  1  0
  4  5  2  0
  5  6  1  0
  6  7  1  0
  7  8  1  0
  8  9  2  0
  8 10  1  0
  8 11  1  0
  5 12  1  0
 12 13  1  0
 13 14  2  0
 12 15  2  0
 15 16  1  0
 15  2  1  0
  1 17  1  0
  1 18  1  0
  1 19  1  0
  4 20  1  0
  6 21  1  0
  6 22  1  0
 10 23  1  0
 11 24  1  0
 13 25  1  0
 16 26  1  0
M  END
$$$$

     RDKit          3D

 26 26  0  0  0  0  0  0  0  0999 V2000
   -3.2766    1.6545    0.9336 C   0  0  0  0  0  0  0  0  0  0  0  0
   -2.0451    0.8522    0.6900 C   0  0  0  0  0  0  0  0  0  0  0  0
   -0.9581    0.9212    1.4677 N   0  0  0  0  0  0  0  0  0  0  0  0
    0.1604    0.1750    1.2229 C   0  0  0  0  0  0  0  0  0  0  0  0
    0.2605   -0.7000    0.1652 C   0  0  0  0  0  0  0  0  0  0  0  0
    1.4410   -1.5384   -0.1268 C   0  0  0  0  0  0  0  0  0  0  0  0
    2.5289   -1.3757    0.6742 O   0  0  0  0  0  0  0  0  0  0  0  0
    3.2106    0.1334    0.5187 P   0  0  0  0  0  5  0  0  0  0  0  0
    3.6512    0.6852    1.8459 O   0  0  0  0  0  0  0  0  0  0  0  0
    2.2487    1.2750   -0.2430 O   0  0  0  0  0  0  0  0  0  0  0  0
    4.6254   -0.0046   -0.4626 O   0  0  0  0  0  0  0  0  0  0  0  0
   -0.8548   -0.7962   -0.6622 C   0  0  0  0  0  0  0  0  0  0  0  0
   -0.8416   -1.7008   -1.7825 C   0  0  0  0  0  0  0  0  0  0  0  0
    0.0597   -2.4510   -2.1592 O   0  0  0  0  0  0  0  0  0  0  0  0
   -1.9834   -0.0125   -0.3756 C   0  0  0  0  0  0  0  0  0  0  0  0
   -3.0739   -0.1328   -1.2199 O   0  0  0  0  0  0  0  0  0  0  0  0
   -3.5184    2.2738    0.0219 H   0  0  0  0  0  0  0  0  0  0  0  0
   -4.1268    0.9714    1.0818 H   0  0  0  0  0  0  0  0  0  0  0  0
   -3.1802    2.3383    1.7731 H   0  0  0  0  0  0  0  0  0  0  0  0
    1.0084    0.2420    1.8997 H   0  0  0  0  0  0  0  0  0  0  0  0
    1.1173   -2.6115   -0.0997 H   0  0  0  0  0  0  0  0  0  0  0  0
    1.7666   -1.3871   -1.2160 H   0  0  0  0  0  0  0  0  0  0  0  0
    2.5693    1.5530   -1.1369 H   0  0  0  0  0  0  0  0  0  0  0  0
    4.8778    0.9381   -0.6464 H   0  0  0  0  0  0  0  0  0  0  0  0
   -1.7742   -1.7244   -2.3907 H   0  0  0  0  0  0  0  0  0  0  0  0
   -3.8928    0.4217   -1.0304 H   0  0  0  0  0  0  0  0  0  0  0  0
  1  2  1  0
  2  3  2  0
  3  4  1  0
  4  5  2  0
  5  6  1  0
  6  7  1  0
  7  8  1  0
  8  9  2  0
  8 10  1  0
  8 11  1  0
  5 12  1  0
 12 13  1  0
 13 14  2  0
 12 15  2  0
 15 16  1  0
 15  2  1  0
  1 17  1  0
  1 18  1  0
  1 19  1  0
  4 20  1  0
  6 21  1  0
  6 22  1  0
 10 23  1  0
 11 24  1  0
 13 25  1  0
 16 26  1  0
M  END
$$$$

     RDKit          3D

 26 26  0  0  0  0  0  0  0  0999 V2000
    4.1035    1.0759    0.5522 C   0  0  0  0  0  0  0  0  0  0  0  0
    2.6678    0.7655    0.3601 C   0  0  0  0  0  0  0  0  0  0  0  0
    1.6689    1.5893    0.7118 N   0  0  0  0  0  0  0  0  0  0  0  0
    0.3708    1.2941    0.5312 C   0  0  0  0  0  0  0  0  0  0  0  0
   -0.0423    0.1025   -0.0387 C   0  0  0  0  0  0  0  0  0  0  0  0
   -1.4846   -0.2078   -0.2301 C   0  0  0  0  0  0  0  0  0  0  0  0
   -2.2891    0.8360    0.2296 O   0  0  0  0  0  0  0  0  0  0  0  0
   -3.9265    0.5006    0.0202 P   0  0  0  0  0  5  0  0  0  0  0  0
   -4.5868    0.5933    1.3885 O   0  0  0  0  0  0  0  0  0  0  0  0
   -4.6551    1.6339   -1.0215 O   0  0  0  0  0  0  0  0  0  0  0  0
   -4.1543   -1.0415   -0.5912 O   0  0  0  0  0  0  0  0  0  0  0  0
    0.9530   -0.7722   -0.4143 C   0  0  0  0  0  0  0  0  0  0  0  0
    0.5874   -2.0370   -1.0174 C   0  0  0  0  0  0  0  0  0  0  0  0
   -0.6093   -2.3666   -1.2109 O   0  0  0  0  0  0  0  0  0  0  0  0
    2.3021   -0.4484   -0.2188 C   0  0  0  0  0  0  0  0  0  0  0  0
    3.3070   -1.3023   -0.5843 O   0  0  0  0  0  0  0  0  0  0  0  0
    4.6503    1.1440   -0.4216 H   0  0  0  0  0  0  0  0  0  0  0  0
    4.6373    0.3224    1.1551 H   0  0  0  0  0  0  0  0  0  0  0  0
    4.2371    2.0490    1.0472 H   0  0  0  0  0  0  0  0  0  0  0  0
   -0.4220    1.9787    0.8248 H   0  0  0  0  0  0  0  0  0  0  0  0
   -1.7391   -1.0979    0.3732 H   0  0  0  0  0  0  0  0  0  0  0  0
   -1.7624   -0.3491   -1.2928 H   0  0  0  0  0  0  0  0  0  0  0  0
   -4.0018    2.3396   -1.2567 H   0  0  0  0  0  0  0  0  0  0  0  0
   -4.4242   -1.6539    0.1300 H   0  0  0  0  0  0  0  0  0  0  0  0
    1.3515   -2.7533   -1.3270 H   0  0  0  0  0  0  0  0  0  0  0  0
    3.2609   -2.1947   -1.0025 H   0  0  0  0  0  0  0  0  0  0  0  0
  1  2  1  0
  2  3  2  0
  3  4  1  0
  4  5  2  0
  5  6  1  0
  6  7  1  0
  7  8  1  0
  8  9  2  0
  8 10  1  0
  8 11  1  0
  5 12  1  0
 12 13  1  0
 13 14  2  0
 12 15  2  0
 15 16  1  0
 15  2  1  0
  1 17  1  0
  1 18  1  0
  1 19  1  0
  4 20  1  0
  6 21  1  0
  6 22  1  0
 10 23  1  0
 11 24  1  0
 13 25  1  0
 16 26  1  0
M  END
$$$$

     RDKit          3D

 26 26  0  0  0  0  0  0  0  0999 V2000
   -3.6061    1.3854   -0.0643 C   0  0  0  0  0  0  0  0  0  0  0  0
   -2.2700    0.7845    0.1446 C   0  0  0  0  0  0  0  0  0  0  0  0
   -1.2793    1.4671    0.7225 N   0  0  0  0  0  0  0  0  0  0  0  0
   -0.0667    0.8934    0.9010 C   0  0  0  0  0  0  0  0  0  0  0  0
    0.2109   -0.3954    0.5062 C   0  0  0  0  0  0  0  0  0  0  0  0
    1.5084   -1.0169    0.7256 C   0  0  0  0  0  0  0  0  0  0  0  0
    2.4731   -0.1941    1.2764 O   0  0  0  0  0  0  0  0  0  0  0  0
    2.9209    1.0718    0.2558 P   0  0  0  0  0  5  0  0  0  0  0  0
    1.9819    1.1334   -0.8997 O   0  0  0  0  0  0  0  0  0  0  0  0
    4.4550    0.6747   -0.4315 O   0  0  0  0  0  0  0  0  0  0  0  0
    3.1050    2.5334    1.0548 O   0  0  0  0  0  0  0  0  0  0  0  0
   -0.8078   -1.1260   -0.0973 C   0  0  0  0  0  0  0  0  0  0  0  0
   -0.5491   -2.4739   -0.5047 C   0  0  0  0  0  0  0  0  0  0  0  0
    0.5405   -3.1052   -0.3821 O   0  0  0  0  0  0  0  0  0  0  0  0
   -2.0152   -0.5303   -0.2656 C   0  0  0  0  0  0  0  0  0  0  0  0
   -3.0659   -1.1893   -0.8536 O   0  0  0  0  0  0  0  0  0  0  0  0
   -4.4061    0.6058   -0.1135 H   0  0  0  0  0  0  0  0  0  0  0  0
   -3.6117    2.0387   -0.9743 H   0  0  0  0  0  0  0  0  0  0  0  0
   -3.8923    2.0317    0.8118 H   0  0  0  0  0  0  0  0  0  0  0  0
    0.6375    1.5460    1.4045 H   0  0  0  0  0  0  0  0  0  0  0  0
    1.9689   -1.3975   -0.2267 H   0  0  0  0  0  0  0  0  0  0  0  0
    1.4401   -1.9141    1.3924 H   0  0  0  0  0  0  0  0  0  0  0  0
    4.5894   -0.3131   -0.3481 H   0  0  0  0  0  0  0  0  0  0  0  0
    4.0418    2.7099    1.2407 H   0  0  0  0  0  0  0  0  0  0  0  0
   -1.3254   -3.0964   -0.9827 H   0  0  0  0  0  0  0  0  0  0  0  0
   -2.9778   -2.1238   -1.1763 H   0  0  0  0  0  0  0  0  0  0  0  0
  1  2  1  0
  2  3  2  0
  3  4  1  0
  4  5  2  0
  5  6  1  0
  6  7  1  0
  7  8  1  0
  8  9  2  0
  8 10  1  0
  8 11  1  0
  5 12  1  0
 12 13  1  0
 13 14  2  0
 12 15  2  0
 15 16  1  0
 15  2  1  0
  1 17  1  0
  1 18  1  0
  1 19  1  0
  4 20  1  0
  6 21  1  0
  6 22  1  0
 10 23  1  0
 11 24  1  0
 13 25  1  0
 16 26  1  0
M  END
$$$$

     RDKit          3D

 26 26  0  0  0  0  0  0  0  0999 V2000
   -4.3419    0.0156   -0.0849 C   0  0  0  0  0  0  0  0  0  0  0  0
   -2.9032    0.1771    0.0353 C   0  0  0  0  0  0  0  0  0  0  0  0
   -2.3076    1.3346    0.2381 N   0  0  0  0  0  0  0  0  0  0  0  0
   -0.9472    1.4556    0.2713 C   0  0  0  0  0  0  0  0  0  0  0  0
   -0.1125    0.3773    0.0917 C   0  0  0  0  0  0  0  0  0  0  0  0
    1.3277    0.5780    0.2429 C   0  0  0  0  0  0  0  0  0  0  0  0
    2.0911    0.3923   -0.9176 O   0  0  0  0  0  0  0  0  0  0  0  0
    3.7075    0.6378   -0.5481 P   0  0  0  0  0  5  0  0  0  0  0  0
    4.5457    0.4980   -1.8022 O   0  0  0  0  0  0  0  0  0  0  0  0
    3.8965    2.2810   -0.0928 O   0  0  0  0  0  0  0  0  0  0  0  0
    4.3303   -0.3406    0.6321 O   0  0  0  0  0  0  0  0  0  0  0  0
   -0.6635   -0.8649   -0.1247 C   0  0  0  0  0  0  0  0  0  0  0  0
    0.2507   -1.9371   -0.4049 C   0  0  0  0  0  0  0  0  0  0  0  0
   -0.0908   -3.0839   -0.7290 O   0  0  0  0  0  0  0  0  0  0  0  0
   -2.0200   -0.9195   -0.1395 C   0  0  0  0  0  0  0  0  0  0  0  0
   -2.6471   -2.1513   -0.3662 O   0  0  0  0  0  0  0  0  0  0  0  0
   -4.8470    0.1599    0.8680 H   0  0  0  0  0  0  0  0  0  0  0  0
   -4.5763   -1.0158   -0.4583 H   0  0  0  0  0  0  0  0  0  0  0  0
   -4.8014    0.6852   -0.8258 H   0  0  0  0  0  0  0  0  0  0  0  0
   -0.6115    2.4735    0.4898 H   0  0  0  0  0  0  0  0  0  0  0  0
    1.8392    0.5362    1.1793 H   0  0  0  0  0  0  0  0  0  0  0  0
    1.3710    1.8567    0.1149 H   0  0  0  0  0  0  0  0  0  0  0  0
    3.7682    2.8400   -0.9108 H   0  0  0  0  0  0  0  0  0  0  0  0
    4.5873   -1.2404    0.2949 H   0  0  0  0  0  0  0  0  0  0  0  0
    1.2925   -1.7543   -0.3247 H   0  0  0  0  0  0  0  0  0  0  0  0
   -2.1376   -2.9909   -0.5223 H   0  0  0  0  0  0  0  0  0  0  0  0
  1  2  1  0
  2  3  2  0
  3  4  1  0
  4  5  2  0
  5  6  1  0
  6  7  1  0
  7  8  1  0
  8  9  2  0
  8 10  1  0
  8 11  1  0
  5 12  1  0
 12 13  1  0
 13 14  2  0
 12 15  2  0
 15 16  1  0
 15  2  1  0
  1 17  1  0
  1 18  1  0
  1 19  1  0
  4 20  1  0
  6 21  1  0
  6 22  1  0
 10 23  1  0
 11 24  1  0
 13 25  1  0
 16 26  1  0
M  END
$$$$

     RDKit          3D

 26 26  0  0  0  0  0  0  0  0999 V2000
   -3.9827    1.5852    0.1348 C   0  0  0  0  0  0  0  0  0  0  0  0
   -2.5659    1.1394   -0.0418 C   0  0  0  0  0  0  0  0  0  0  0  0
   -1.6318    1.8208   -0.6924 N   0  0  0  0  0  0  0  0  0  0  0  0
   -0.3604    1.4234   -0.8112 C   0  0  0  0  0  0  0  0  0  0  0  0
    0.1103    0.2190   -0.2479 C   0  0  0  0  0  0  0  0  0  0  0  0
    1.5317   -0.0517   -0.2952 C   0  0  0  0  0  0  0  0  0  0  0  0
    1.9491   -1.2466   -0.8304 O   0  0  0  0  0  0  0  0  0  0  0  0
    3.6919   -1.2059   -0.8142 P   0  0  0  0  0  5  0  0  0  0  0  0
    4.1849   -1.9655   -2.0070 O   0  0  0  0  0  0  0  0  0  0  0  0
    4.3042   -1.8547    0.5900 O   0  0  0  0  0  0  0  0  0  0  0  0
    4.2238    0.4074   -0.9352 O   0  0  0  0  0  0  0  0  0  0  0  0
   -0.8587   -0.4992    0.4376 C   0  0  0  0  0  0  0  0  0  0  0  0
   -0.4283   -1.7141    1.0842 C   0  0  0  0  0  0  0  0  0  0  0  0
    0.7121   -2.1618    1.0813 O   0  0  0  0  0  0  0  0  0  0  0  0
   -2.1831   -0.0497    0.5394 C   0  0  0  0  0  0  0  0  0  0  0  0
   -3.0964   -0.7971    1.2275 O   0  0  0  0  0  0  0  0  0  0  0  0
   -4.0184    2.0480    1.2047 H   0  0  0  0  0  0  0  0  0  0  0  0
   -4.1649    2.4342   -0.5258 H   0  0  0  0  0  0  0  0  0  0  0  0
   -4.7049    0.7849    0.0981 H   0  0  0  0  0  0  0  0  0  0  0  0
    0.4049    2.0185   -1.3483 H   0  0  0  0  0  0  0  0  0  0  0  0
    2.1381    0.2536    0.5981 H   0  0  0  0  0  0  0  0  0  0  0  0
    1.9652    0.7580   -1.0648 H   0  0  0  0  0  0  0  0  0  0  0  0
    4.1538   -1.2442    1.3864 H   0  0  0  0  0  0  0  0  0  0  0  0
    3.8663    0.8042   -1.7607 H   0  0  0  0  0  0  0  0  0  0  0  0
   -1.1903   -2.3184    1.6334 H   0  0  0  0  0  0  0  0  0  0  0  0
   -4.0505   -0.5876    1.3594 H   0  0  0  0  0  0  0  0  0  0  0  0
  1  2  1  0
  2  3  2  0
  3  4  1  0
  4  5  2  0
  5  6  1  0
  6  7  1  0
  7  8  1  0
  8  9  2  0
  8 10  1  0
  8 11  1  0
  5 12  1  0
 12 13  1  0
 13 14  2  0
 12 15  2  0
 15 16  1  0
 15  2  1  0
  1 17  1  0
  1 18  1  0
  1 19  1  0
  4 20  1  0
  6 21  1  0
  6 22  1  0
 10 23  1  0
 11 24  1  0
 13 25  1  0
 16 26  1  0
M  END
$$$$

     RDKit          3D

 26 26  0  0  0  0  0  0  0  0999 V2000
    3.7295    1.0325    1.8304 C   0  0  0  0  0  0  0  0  0  0  0  0
    2.4335    0.6148    1.2414 C   0  0  0  0  0  0  0  0  0  0  0  0
    1.5950   -0.2038    1.8786 N   0  0  0  0  0  0  0  0  0  0  0  0
    0.4250   -0.5922    1.3681 C   0  0  0  0  0  0  0  0  0  0  0  0
    0.0229   -0.1644    0.1502 C   0  0  0  0  0  0  0  0  0  0  0  0
   -1.2790   -0.5758   -0.4568 C   0  0  0  0  0  0  0  0  0  0  0  0
   -1.9323   -1.4253    0.4330 O   0  0  0  0  0  0  0  0  0  0  0  0
   -3.4103   -1.8854   -0.2692 P   0  0  0  0  0  5  0  0  0  0  0  0
   -3.8729   -3.1978    0.3299 O   0  0  0  0  0  0  0  0  0  0  0  0
   -3.1344   -2.1260   -1.9134 O   0  0  0  0  0  0  0  0  0  0  0  0
   -4.5670   -0.6830   -0.0897 O   0  0  0  0  0  0  0  0  0  0  0  0
    0.8404    0.6959   -0.5866 C   0  0  0  0  0  0  0  0  0  0  0  0
    0.3695    1.1328   -1.8937 C   0  0  0  0  0  0  0  0  0  0  0  0
    1.0364    1.9017   -2.6194 O   0  0  0  0  0  0  0  0  0  0  0  0
    2.0411    1.0768   -0.0297 C   0  0  0  0  0  0  0  0  0  0  0  0
    2.9052    1.9070   -0.6615 O   0  0  0  0  0  0  0  0  0  0  0  0
    3.6075    1.6434    2.7355 H   0  0  0  0  0  0  0  0  0  0  0  0
    4.3763    0.1378    1.9849 H   0  0  0  0  0  0  0  0  0  0  0  0
    4.2618    1.6714    1.0794 H   0  0  0  0  0  0  0  0  0  0  0  0
   -0.1981   -1.2563    1.9452 H   0  0  0  0  0  0  0  0  0  0  0  0
   -1.1155   -1.0526   -1.4440 H   0  0  0  0  0  0  0  0  0  0  0  0
   -1.8910    0.3523   -0.5202 H   0  0  0  0  0  0  0  0  0  0  0  0
   -3.3425   -1.2883   -2.3825 H   0  0  0  0  0  0  0  0  0  0  0  0
   -5.1740   -0.8610    0.6645 H   0  0  0  0  0  0  0  0  0  0  0  0
   -0.6039    0.7868   -2.2761 H   0  0  0  0  0  0  0  0  0  0  0  0
    2.8768    2.3588   -1.5303 H   0  0  0  0  0  0  0  0  0  0  0  0
  1  2  1  0
  2  3  2  0
  3  4  1  0
  4  5  2  0
  5  6  1  0
  6  7  1  0
  7  8  1  0
  8  9  2  0
  8 10  1  0
  8 11  1  0
  5 12  1  0
 12 13  1  0
 13 14  2  0
 12 15  2  0
 15 16  1  0
 15  2  1  0
  1 17  1  0
  1 18  1  0
  1 19  1  0
  4 20  1  0
  6 21  1  0
  6 22  1  0
 10 23  1  0
 11 24  1  0
 13 25  1  0
 16 26  1  0
M  END
$$$$

     RDKit          3D

 26 26  0  0  0  0  0  0  0  0999 V2000
   -4.1548    0.7355   -0.0828 C   0  0  0  0  0  0  0  0  0  0  0  0
   -2.7046    0.5136   -0.0270 C   0  0  0  0  0  0  0  0  0  0  0  0
   -1.8717    1.5503    0.0230 N   0  0  0  0  0  0  0  0  0  0  0  0
   -0.5365    1.3496    0.0747 C   0  0  0  0  0  0  0  0  0  0  0  0
   -0.0043    0.0782    0.0770 C   0  0  0  0  0  0  0  0  0  0  0  0
    1.4702   -0.0637    0.1474 C   0  0  0  0  0  0  0  0  0  0  0  0
    2.0694    1.1927    0.1757 O   0  0  0  0  0  0  0  0  0  0  0  0
    3.7326    1.1261    0.2551 P   0  0  0  0  0  5  0  0  0  0  0  0
    4.2624    2.2251    1.1745 O   0  0  0  0  0  0  0  0  0  0  0  0
    4.3489    1.4509   -1.2925 O   0  0  0  0  0  0  0  0  0  0  0  0
    4.2877   -0.3662    0.8386 O   0  0  0  0  0  0  0  0  0  0  0  0
   -0.8796   -0.9912    0.0243 C   0  0  0  0  0  0  0  0  0  0  0  0
   -0.3392   -2.3268    0.0188 C   0  0  0  0  0  0  0  0  0  0  0  0
    0.9080   -2.5674    0.0632 O   0  0  0  0  0  0  0  0  0  0  0  0
   -2.2500   -0.8069   -0.0288 C   0  0  0  0  0  0  0  0  0  0  0  0
   -3.1681   -1.8356   -0.0822 O   0  0  0  0  0  0  0  0  0  0  0  0
   -4.6376    0.1250   -0.8635 H   0  0  0  0  0  0  0  0  0  0  0  0
   -4.6171    0.4590    0.9021 H   0  0  0  0  0  0  0  0  0  0  0  0
   -4.3996    1.7974   -0.2820 H   0  0  0  0  0  0  0  0  0  0  0  0
    0.1415    2.1903    0.1154 H   0  0  0  0  0  0  0  0  0  0  0  0
    1.8137   -0.5708   -0.7732 H   0  0  0  0  0  0  0  0  0  0  0  0
    1.7336   -0.6648    1.0439 H   0  0  0  0  0  0  0  0  0  0  0  0
    3.7027    2.0454   -1.7777 H   0  0  0  0  0  0  0  0  0  0  0  0
    5.0967   -0.6762    0.3907 H   0  0  0  0  0  0  0  0  0  0  0  0
   -1.0196   -3.1684   -0.0251 H   0  0  0  0  0  0  0  0  0  0  0  0
   -2.9845   -2.8014   -0.0895 H   0  0  0  0  0  0  0  0  0  0  0  0
  1  2  1  0
  2  3  2  0
  3  4  1  0
  4  5  2  0
  5  6  1  0
  6  7  1  0
  7  8  1  0
  8  9  2  0
  8 10  1  0
  8 11  1  0
  5 12  1  0
 12 13  1  0
 13 14  2  0
 12 15  2  0
 15 16  1  0
 15  2  1  0
  1 17  1  0
  1 18  1  0
  1 19  1  0
  4 20  1  0
  6 21  1  0
  6 22  1  0
 10 23  1  0
 11 24  1  0
 13 25  1  0
 16 26  1  0
M  END
$$$$

     RDKit          3D

 26 26  0  0  0  0  0  0  0  0999 V2000
   -3.5074    1.5469    0.6744 C   0  0  0  0  0  0  0  0  0  0  0  0
   -2.2242    0.8750    0.3480 C   0  0  0  0  0  0  0  0  0  0  0  0
   -1.1170    1.5963    0.1291 N   0  0  0  0  0  0  0  0  0  0  0  0
    0.0812    1.0295   -0.1724 C   0  0  0  0  0  0  0  0  0  0  0  0
    0.2649   -0.3248   -0.2781 C   0  0  0  0  0  0  0  0  0  0  0  0
    1.5391   -0.9580   -0.6433 C   0  0  0  0  0  0  0  0  0  0  0  0
    2.5890   -0.1201   -0.7613 O   0  0  0  0  0  0  0  0  0  0  0  0
    3.1095    0.6726    0.6049 P   0  0  0  0  0  5  0  0  0  0  0  0
    2.1450    0.6430    1.7600 O   0  0  0  0  0  0  0  0  0  0  0  0
    3.4503    2.2940    0.2630 O   0  0  0  0  0  0  0  0  0  0  0  0
    4.6229    0.0111    1.1080 O   0  0  0  0  0  0  0  0  0  0  0  0
   -0.8839   -1.0902   -0.0526 C   0  0  0  0  0  0  0  0  0  0  0  0
   -0.8109   -2.5362   -0.1385 C   0  0  0  0  0  0  0  0  0  0  0  0
   -1.8099   -3.2624    0.0554 O   0  0  0  0  0  0  0  0  0  0  0  0
   -2.0900   -0.4955    0.2515 C   0  0  0  0  0  0  0  0  0  0  0  0
   -3.2175   -1.2658    0.4718 O   0  0  0  0  0  0  0  0  0  0  0  0
   -3.2977    2.6118    0.8860 H   0  0  0  0  0  0  0  0  0  0  0  0
   -3.9759    1.0250    1.5276 H   0  0  0  0  0  0  0  0  0  0  0  0
   -4.1577    1.5144   -0.2255 H   0  0  0  0  0  0  0  0  0  0  0  0
    0.9059    1.7126   -0.3571 H   0  0  0  0  0  0  0  0  0  0  0  0
    1.7510   -1.8630   -0.0135 H   0  0  0  0  0  0  0  0  0  0  0  0
    1.3523   -1.4099   -1.6714 H   0  0  0  0  0  0  0  0  0  0  0  0
    4.3719    2.4158   -0.0678 H   0  0  0  0  0  0  0  0  0  0  0  0
    4.8715   -0.7518    0.5268 H   0  0  0  0  0  0  0  0  0  0  0  0
    0.1300   -3.0400   -0.3779 H   0  0  0  0  0  0  0  0  0  0  0  0
   -4.0927   -0.8302    0.6914 H   0  0  0  0  0  0  0  0  0  0  0  0
  1  2  1  0
  2  3  2  0
  3  4  1  0
  4  5  2  0
  5  6  1  0
  6  7  1  0
  7  8  1  0
  8  9  2  0
  8 10  1  0
  8 11  1  0
  5 12  1  0
 12 13  1  0
 13 14  2  0
 12 15  2  0
 15 16  1  0
 15  2  1  0
  1 17  1  0
  1 18  1  0
  1 19  1  0
  4 20  1  0
  6 21  1  0
  6 22  1  0
 10 23  1  0
 11 24  1  0
 13 25  1  0
 16 26  1  0
M  END
$$$$

     RDKit          3D

 26 26  0  0  0  0  0  0  0  0999 V2000
   -3.1042    2.0414   -0.2323 C   0  0  0  0  0  0  0  0  0  0  0  0
   -1.9460    1.1522    0.0454 C   0  0  0  0  0  0  0  0  0  0  0  0
   -0.7721    1.6542    0.4091 N   0  0  0  0  0  0  0  0  0  0  0  0
    0.3245    0.8963    0.6769 C   0  0  0  0  0  0  0  0  0  0  0  0
    0.2449   -0.4667    0.5729 C   0  0  0  0  0  0  0  0  0  0  0  0
    1.3982   -1.3369    0.8795 C   0  0  0  0  0  0  0  0  0  0  0  0
    2.5594   -0.7203    1.1811 O   0  0  0  0  0  0  0  0  0  0  0  0
    3.2980    0.1834   -0.0026 P   0  0  0  0  0  5  0  0  0  0  0  0
    4.4732   -0.5930   -0.6347 O   0  0  0  0  0  0  0  0  0  0  0  0
    3.8931    1.6091    0.6817 O   0  0  0  0  0  0  0  0  0  0  0  0
    2.3112    0.5801   -1.3119 O   0  0  0  0  0  0  0  0  0  0  0  0
   -0.9757   -1.0495    0.1923 C   0  0  0  0  0  0  0  0  0  0  0  0
   -1.0540   -2.4979    0.0945 C   0  0  0  0  0  0  0  0  0  0  0  0
   -2.0694   -3.1161   -0.2245 O   0  0  0  0  0  0  0  0  0  0  0  0
   -2.0540   -0.2369   -0.0667 C   0  0  0  0  0  0  0  0  0  0  0  0
   -3.2931   -0.7085   -0.4466 O   0  0  0  0  0  0  0  0  0  0  0  0
   -4.0306    1.4424   -0.3196 H   0  0  0  0  0  0  0  0  0  0  0  0
   -3.2492    2.7843    0.5791 H   0  0  0  0  0  0  0  0  0  0  0  0
   -2.9231    2.6449   -1.1568 H   0  0  0  0  0  0  0  0  0  0  0  0
    1.2333    1.4226    0.9940 H   0  0  0  0  0  0  0  0  0  0  0  0
    1.0806   -1.9319    1.7855 H   0  0  0  0  0  0  0  0  0  0  0  0
    1.5203   -2.0689    0.0413 H   0  0  0  0  0  0  0  0  0  0  0  0
    4.5288    1.4690    1.4007 H   0  0  0  0  0  0  0  0  0  0  0  0
    2.3900    1.5455   -1.5217 H   0  0  0  0  0  0  0  0  0  0  0  0
   -0.1530   -3.0934    0.3186 H   0  0  0  0  0  0  0  0  0  0  0  0
   -3.6312   -1.6057   -0.5959 H   0  0  0  0  0  0  0  0  0  0  0  0
  1  2  1  0
  2  3  2  0
  3  4  1  0
  4  5  2  0
  5  6  1  0
  6  7  1  0
  7  8  1  0
  8  9  2  0
  8 10  1  0
  8 11  1  0
  5 12  1  0
 12 13  1  0
 13 14  2  0
 12 15  2  0
 15 16  1  0
 15  2  1  0
  1 17  1  0
  1 18  1  0
  1 19  1  0
  4 20  1  0
  6 21  1  0
  6 22  1  0
 10 23  1  0
 11 24  1  0
 13 25  1  0
 16 26  1  0
M  END
$$$$

     RDKit          3D

 26 26  0  0  0  0  0  0  0  0999 V2000
   -4.2094   -0.3147   -0.4684 C   0  0  0  0  0  0  0  0  0  0  0  0
   -2.7324   -0.3900   -0.4893 C   0  0  0  0  0  0  0  0  0  0  0  0
   -2.0266   -0.9609   -1.4122 N   0  0  0  0  0  0  0  0  0  0  0  0
   -0.7030   -1.0443   -1.4940 C   0  0  0  0  0  0  0  0  0  0  0  0
   -0.0174   -0.4215   -0.4329 C   0  0  0  0  0  0  0  0  0  0  0  0
    1.4521   -0.5356   -0.2902 C   0  0  0  0  0  0  0  0  0  0  0  0
    1.9594    0.7542   -0.5080 O   0  0  0  0  0  0  0  0  0  0  0  0
    3.5960    0.9772   -0.4621 P   0  0  0  0  0  5  0  0  0  0  0  0
    4.0331    1.8823   -1.6640 O   0  0  0  0  0  0  0  0  0  0  0  0
    4.0736    1.7302    0.9055 O   0  0  0  0  0  0  0  0  0  0  0  0
    4.4781   -0.4433   -0.7070 O   0  0  0  0  0  0  0  0  0  0  0  0
   -0.7038    0.2268    0.5982 C   0  0  0  0  0  0  0  0  0  0  0  0
    0.0483    0.8429    1.7201 C   0  0  0  0  0  0  0  0  0  0  0  0
   -0.5905    1.4074    2.5952 O   0  0  0  0  0  0  0  0  0  0  0  0
   -2.0728    0.2533    0.5905 C   0  0  0  0  0  0  0  0  0  0  0  0
   -2.7761    0.8557    1.5547 O   0  0  0  0  0  0  0  0  0  0  0  0
   -4.5181    0.7017   -0.7105 H   0  0  0  0  0  0  0  0  0  0  0  0
   -4.6352   -0.7167    0.4682 H   0  0  0  0  0  0  0  0  0  0  0  0
   -4.5754   -0.9758   -1.2958 H   0  0  0  0  0  0  0  0  0  0  0  0
   -0.1304   -1.5209   -2.2703 H   0  0  0  0  0  0  0  0  0  0  0  0
    1.8237   -1.1504   -1.2590 H   0  0  0  0  0  0  0  0  0  0  0  0
    1.7482   -1.0714    0.5597 H   0  0  0  0  0  0  0  0  0  0  0  0
    3.9660    1.3248    1.7466 H   0  0  0  0  0  0  0  0  0  0  0  0
    4.0338   -1.0687   -1.3457 H   0  0  0  0  0  0  0  0  0  0  0  0
    1.1298    0.7750    1.7046 H   0  0  0  0  0  0  0  0  0  0  0  0
   -2.6509    1.3549    2.3662 H   0  0  0  0  0  0  0  0  0  0  0  0
  1  2  1  0
  2  3  2  0
  3  4  1  0
  4  5  2  0
  5  6  1  0
  6  7  1  0
  7  8  1  0
  8  9  2  0
  8 10  1  0
  8 11  1  0
  5 12  1  0
 12 13  1  0
 13 14  2  0
 12 15  2  0
 15 16  1  0
 15  2  1  0
  1 17  1  0
  1 18  1  0
  1 19  1  0
  4 20  1  0
  6 21  1  0
  6 22  1  0
 10 23  1  0
 11 24  1  0
 13 25  1  0
 16 26  1  0
M  END
$$$$

     RDKit          3D

 26 26  0  0  0  0  0  0  0  0999 V2000
   -4.3152    0.0532    0.0757 C   0  0  0  0  0  0  0  0  0  0  0  0
   -2.8669    0.2892    0.0014 C   0  0  0  0  0  0  0  0  0  0  0  0
   -2.2518    1.4455   -0.2235 N   0  0  0  0  0  0  0  0  0  0  0  0
   -0.9420    1.5989   -0.3276 C   0  0  0  0  0  0  0  0  0  0  0  0
   -0.1083    0.4889   -0.1916 C   0  0  0  0  0  0  0  0  0  0  0  0
    1.3883    0.6189   -0.3905 C   0  0  0  0  0  0  0  0  0  0  0  0
    1.9826    0.2718    0.8387 O   0  0  0  0  0  0  0  0  0  0  0  0
    3.6564    0.2572    0.7955 P   0  0  0  0  0  5  0  0  0  0  0  0
    4.1607   -0.9284    1.5957 O   0  0  0  0  0  0  0  0  0  0  0  0
    4.1179    0.0081   -0.8175 O   0  0  0  0  0  0  0  0  0  0  0  0
    4.2988    1.6550    1.4593 O   0  0  0  0  0  0  0  0  0  0  0  0
   -0.6739   -0.7406    0.0464 C   0  0  0  0  0  0  0  0  0  0  0  0
    0.2511   -1.8516    0.2295 C   0  0  0  0  0  0  0  0  0  0  0  0
   -0.2088   -2.9708    0.5254 O   0  0  0  0  0  0  0  0  0  0  0  0
   -2.0145   -0.8651    0.1461 C   0  0  0  0  0  0  0  0  0  0  0  0
   -2.6820   -2.0311    0.3957 O   0  0  0  0  0  0  0  0  0  0  0  0
   -4.5608   -1.0499    0.0835 H   0  0  0  0  0  0  0  0  0  0  0  0
   -4.8906    0.5764   -0.7225 H   0  0  0  0  0  0  0  0  0  0  0  0
   -4.6240    0.4448    1.0724 H   0  0  0  0  0  0  0  0  0  0  0  0
   -0.5349    2.5808   -0.5184 H   0  0  0  0  0  0  0  0  0  0  0  0
    1.5824    1.7887   -0.4762 H   0  0  0  0  0  0  0  0  0  0  0  0
    1.7537    0.0663   -1.2179 H   0  0  0  0  0  0  0  0  0  0  0  0
    4.8774    0.6074   -1.0507 H   0  0  0  0  0  0  0  0  0  0  0  0
    3.6660    2.4248    1.3620 H   0  0  0  0  0  0  0  0  0  0  0  0
    1.3001   -1.8225    0.1082 H   0  0  0  0  0  0  0  0  0  0  0  0
   -2.3618   -2.9155    0.5757 H   0  0  0  0  0  0  0  0  0  0  0  0
  1  2  1  0
  2  3  2  0
  3  4  1  0
  4  5  2  0
  5  6  1  0
  6  7  1  0
  7  8  1  0
  8  9  2  0
  8 10  1  0
  8 11  1  0
  5 12  1  0
 12 13  1  0
 13 14  2  0
 12 15  2  0
 15 16  1  0
 15  2  1  0
  1 17  1  0
  1 18  1  0
  1 19  1  0
  4 20  1  0
  6 21  1  0
  6 22  1  0
 10 23  1  0
 11 24  1  0
 13 25  1  0
 16 26  1  0
M  END
$$$$

     RDKit          3D

 26 26  0  0  0  0  0  0  0  0999 V2000
   -3.0779    1.7960   -1.2865 C   0  0  0  0  0  0  0  0  0  0  0  0
   -1.9376    1.1117   -0.6466 C   0  0  0  0  0  0  0  0  0  0  0  0
   -0.8379    1.7950   -0.3755 N   0  0  0  0  0  0  0  0  0  0  0  0
    0.2199    1.1922    0.2095 C   0  0  0  0  0  0  0  0  0  0  0  0
    0.2215   -0.1315    0.5490 C   0  0  0  0  0  0  0  0  0  0  0  0
    1.3360   -0.8044    1.2192 C   0  0  0  0  0  0  0  0  0  0  0  0
    2.4327   -0.0322    1.3683 O   0  0  0  0  0  0  0  0  0  0  0  0
    3.2527    0.4461    0.0059 P   0  0  0  0  0  5  0  0  0  0  0  0
    3.7339    1.8722    0.2030 O   0  0  0  0  0  0  0  0  0  0  0  0
    4.6220   -0.5522   -0.2709 O   0  0  0  0  0  0  0  0  0  0  0  0
    2.3655    0.3925   -1.4196 O   0  0  0  0  0  0  0  0  0  0  0  0
   -0.9635   -0.8382    0.2506 C   0  0  0  0  0  0  0  0  0  0  0  0
   -0.9814   -2.2409    0.6141 C   0  0  0  0  0  0  0  0  0  0  0  0
   -1.9404   -3.0220    0.4323 O   0  0  0  0  0  0  0  0  0  0  0  0
   -2.0513   -0.2538   -0.3412 C   0  0  0  0  0  0  0  0  0  0  0  0
   -3.2300   -0.8915   -0.6553 O   0  0  0  0  0  0  0  0  0  0  0  0
   -2.6793    2.2416   -2.2405 H   0  0  0  0  0  0  0  0  0  0  0  0
   -3.3705    2.6545   -0.6479 H   0  0  0  0  0  0  0  0  0  0  0  0
   -3.9127    1.1163   -1.5188 H   0  0  0  0  0  0  0  0  0  0  0  0
    1.0800    1.7983    0.4425 H   0  0  0  0  0  0  0  0  0  0  0  0
    1.0379   -1.1414    2.2614 H   0  0  0  0  0  0  0  0  0  0  0  0
    1.5743   -1.7656    0.6448 H   0  0  0  0  0  0  0  0  0  0  0  0
    4.3904   -1.4757    0.0055 H   0  0  0  0  0  0  0  0  0  0  0  0
    2.3380    1.2650   -1.8906 H   0  0  0  0  0  0  0  0  0  0  0  0
   -0.1190   -2.7080    1.0871 H   0  0  0  0  0  0  0  0  0  0  0  0
   -3.5030   -1.8240   -0.5263 H   0  0  0  0  0  0  0  0  0  0  0  0
  1  2  1  0
  2  3  2  0
  3  4  1  0
  4  5  2  0
  5  6  1  0
  6  7  1  0
  7  8  1  0
  8  9  2  0
  8 10  1  0
  8 11  1  0
  5 12  1  0
 12 13  1  0
 13 14  2  0
 12 15  2  0
 15 16  1  0
 15  2  1  0
  1 17  1  0
  1 18  1  0
  1 19  1  0
  4 20  1  0
  6 21  1  0
  6 22  1  0
 10 23  1  0
 11 24  1  0
 13 25  1  0
 16 26  1  0
M  END
$$$$

     RDKit          3D

 26 26  0  0  0  0  0  0  0  0999 V2000
   -3.1932    1.3843    1.7416 C   0  0  0  0  0  0  0  0  0  0  0  0
   -2.0181    0.7092    1.1192 C   0  0  0  0  0  0  0  0  0  0  0  0
   -0.8431    0.6063    1.7274 N   0  0  0  0  0  0  0  0  0  0  0  0
    0.2349   -0.0038    1.1752 C   0  0  0  0  0  0  0  0  0  0  0  0
    0.2000   -0.5696   -0.0710 C   0  0  0  0  0  0  0  0  0  0  0  0
    1.3166   -1.2771   -0.7226 C   0  0  0  0  0  0  0  0  0  0  0  0
    2.4898   -1.2637   -0.0479 O   0  0  0  0  0  0  0  0  0  0  0  0
    3.2260    0.2314    0.1358 P   0  0  0  0  0  5  0  0  0  0  0  0
    2.2812    1.3483   -0.1969 O   0  0  0  0  0  0  0  0  0  0  0  0
    3.7810    0.4346    1.7011 O   0  0  0  0  0  0  0  0  0  0  0  0
    4.5712    0.3529   -0.9378 O   0  0  0  0  0  0  0  0  0  0  0  0
   -1.0401   -0.4780   -0.7470 C   0  0  0  0  0  0  0  0  0  0  0  0
   -1.0981   -1.0751   -2.0571 C   0  0  0  0  0  0  0  0  0  0  0  0
   -2.1040   -1.0956   -2.8001 O   0  0  0  0  0  0  0  0  0  0  0  0
   -2.1237    0.1461   -0.1674 C   0  0  0  0  0  0  0  0  0  0  0  0
   -3.3528    0.2663   -0.7751 O   0  0  0  0  0  0  0  0  0  0  0  0
   -3.2384    2.4585    1.4014 H   0  0  0  0  0  0  0  0  0  0  0  0
   -4.1392    0.8936    1.4434 H   0  0  0  0  0  0  0  0  0  0  0  0
   -3.0309    1.4161    2.8220 H   0  0  0  0  0  0  0  0  0  0  0  0
    1.1636   -0.0764    1.7512 H   0  0  0  0  0  0  0  0  0  0  0  0
    0.9386   -2.3231   -0.9195 H   0  0  0  0  0  0  0  0  0  0  0  0
    1.4922   -0.8320   -1.7599 H   0  0  0  0  0  0  0  0  0  0  0  0
    4.0433   -0.4456    2.1018 H   0  0  0  0  0  0  0  0  0  0  0  0
    4.2716    0.8170   -1.7725 H   0  0  0  0  0  0  0  0  0  0  0  0
   -0.2167   -1.5655   -2.4862 H   0  0  0  0  0  0  0  0  0  0  0  0
   -3.6115   -0.0592   -1.6592 H   0  0  0  0  0  0  0  0  0  0  0  0
  1  2  1  0
  2  3  2  0
  3  4  1  0
  4  5  2  0
  5  6  1  0
  6  7  1  0
  7  8  1  0
  8  9  2  0
  8 10  1  0
  8 11  1  0
  5 12  1  0
 12 13  1  0
 13 14  2  0
 12 15  2  0
 15 16  1  0
 15  2  1  0
  1 17  1  0
  1 18  1  0
  1 19  1  0
  4 20  1  0
  6 21  1  0
  6 22  1  0
 10 23  1  0
 11 24  1  0
 13 25  1  0
 16 26  1  0
M  END
$$$$

     RDKit          3D

 26 26  0  0  0  0  0  0  0  0999 V2000
   -3.8923    1.6413    0.2508 C   0  0  0  0  0  0  0  0  0  0  0  0
   -2.4957    1.1045    0.2520 C   0  0  0  0  0  0  0  0  0  0  0  0
   -1.4421    1.8566    0.5665 N   0  0  0  0  0  0  0  0  0  0  0  0
   -0.1989    1.3537    0.5608 C   0  0  0  0  0  0  0  0  0  0  0  0
    0.0509    0.0392    0.2308 C   0  0  0  0  0  0  0  0  0  0  0  0
    1.4410   -0.4547    0.2430 C   0  0  0  0  0  0  0  0  0  0  0  0
    2.2688    0.6165    0.6202 O   0  0  0  0  0  0  0  0  0  0  0  0
    3.8825    0.1629    0.6668 P   0  0  0  0  0  5  0  0  0  0  0  0
    4.4345    0.3820    2.0558 O   0  0  0  0  0  0  0  0  0  0  0  0
    4.7490    1.0392   -0.4835 O   0  0  0  0  0  0  0  0  0  0  0  0
    3.9723   -1.4918    0.2999 O   0  0  0  0  0  0  0  0  0  0  0  0
   -1.0150   -0.7704   -0.1006 C   0  0  0  0  0  0  0  0  0  0  0  0
   -0.8073   -2.1614   -0.4558 C   0  0  0  0  0  0  0  0  0  0  0  0
    0.3633   -2.6578   -0.4673 O   0  0  0  0  0  0  0  0  0  0  0  0
   -2.2877   -0.2392   -0.0903 C   0  0  0  0  0  0  0  0  0  0  0  0
   -3.4278   -0.9639   -0.4065 O   0  0  0  0  0  0  0  0  0  0  0  0
   -3.8022    2.7409    0.3163 H   0  0  0  0  0  0  0  0  0  0  0  0
   -4.4739    1.2655    1.1105 H   0  0  0  0  0  0  0  0  0  0  0  0
   -4.3628    1.4087   -0.7175 H   0  0  0  0  0  0  0  0  0  0  0  0
    0.6319    2.0345    0.8325 H   0  0  0  0  0  0  0  0  0  0  0  0
    1.7782   -0.8495   -0.7552 H   0  0  0  0  0  0  0  0  0  0  0  0
    1.5410   -1.2819    0.9737 H   0  0  0  0  0  0  0  0  0  0  0  0
    4.4830    1.9935   -0.4976 H   0  0  0  0  0  0  0  0  0  0  0  0
    3.6270   -2.0413    1.0421 H   0  0  0  0  0  0  0  0  0  0  0  0
   -1.6305   -2.7993   -0.7151 H   0  0  0  0  0  0  0  0  0  0  0  0
   -3.3870   -1.9277   -0.6634 H   0  0  0  0  0  0  0  0  0  0  0  0
  1  2  1  0
  2  3  2  0
  3  4  1  0
  4  5  2  0
  5  6  1  0
  6  7  1  0
  7  8  1  0
  8  9  2  0
  8 10  1  0
  8 11  1  0
  5 12  1  0
 12 13  1  0
 13 14  2  0
 12 15  2  0
 15 16  1  0
 15  2  1  0
  1 17  1  0
  1 18  1  0
  1 19  1  0
  4 20  1  0
  6 21  1  0
  6 22  1  0
 10 23  1  0
 11 24  1  0
 13 25  1  0
 16 26  1  0
M  END
$$$$

     RDKit          3D

 26 26  0  0  0  0  0  0  0  0999 V2000
   -3.9347   -1.5254    0.3240 C   0  0  0  0  0  0  0  0  0  0  0  0
   -2.5193   -1.0408    0.2380 C   0  0  0  0  0  0  0  0  0  0  0  0
   -1.4870   -1.8186    0.5993 N   0  0  0  0  0  0  0  0  0  0  0  0
   -0.2354   -1.3400    0.5045 C   0  0  0  0  0  0  0  0  0  0  0  0
   -0.0040   -0.0706    0.0442 C   0  0  0  0  0  0  0  0  0  0  0  0
    1.3672    0.4573   -0.0612 C   0  0  0  0  0  0  0  0  0  0  0  0
    2.2706   -0.5121    0.3635 O   0  0  0  0  0  0  0  0  0  0  0  0
    3.8619    0.0860    0.2464 P   0  0  0  0  0  5  0  0  0  0  0  0
    4.0585    1.1198    1.3398 O   0  0  0  0  0  0  0  0  0  0  0  0
    4.1127    0.8135   -1.2792 O   0  0  0  0  0  0  0  0  0  0  0  0
    4.9793   -1.1750    0.3652 O   0  0  0  0  0  0  0  0  0  0  0  0
   -1.0707    0.7494   -0.3353 C   0  0  0  0  0  0  0  0  0  0  0  0
   -0.8034    2.0973   -0.8224 C   0  0  0  0  0  0  0  0  0  0  0  0
   -1.6993    2.8653   -1.1709 O   0  0  0  0  0  0  0  0  0  0  0  0
   -2.3543    0.2682   -0.2416 C   0  0  0  0  0  0  0  0  0  0  0  0
   -3.4652    0.9606   -0.5763 O   0  0  0  0  0  0  0  0  0  0  0  0
   -4.2385   -1.9238   -0.6705 H   0  0  0  0  0  0  0  0  0  0  0  0
   -4.0223   -2.3842    1.0361 H   0  0  0  0  0  0  0  0  0  0  0  0
   -4.6385   -0.7028    0.5649 H   0  0  0  0  0  0  0  0  0  0  0  0
    0.6018   -1.9965    0.8071 H   0  0  0  0  0  0  0  0  0  0  0  0
    1.4497    1.3026    0.6569 H   0  0  0  0  0  0  0  0  0  0  0  0
    1.5957    0.7682   -1.0999 H   0  0  0  0  0  0  0  0  0  0  0  0
    5.0938    0.7429   -1.4957 H   0  0  0  0  0  0  0  0  0  0  0  0
    4.5020   -2.0476    0.3371 H   0  0  0  0  0  0  0  0  0  0  0  0
    0.2382    2.4567   -0.8868 H   0  0  0  0  0  0  0  0  0  0  0  0
   -3.6589    1.8496   -0.9226 H   0  0  0  0  0  0  0  0  0  0  0  0
  1  2  1  0
  2  3  2  0
  3  4  1  0
  4  5  2  0
  5  6  1  0
  6  7  1  0
  7  8  1  0
  8  9  2  0
  8 10  1  0
  8 11  1  0
  5 12  1  0
 12 13  1  0
 13 14  2  0
 12 15  2  0
 15 16  1  0
 15  2  1  0
  1 17  1  0
  1 18  1  0
  1 19  1  0
  4 20  1  0
  6 21  1  0
  6 22  1  0
 10 23  1  0
 11 24  1  0
 13 25  1  0
 16 26  1  0
M  END
$$$$

     RDKit          3D

 26 26  0  0  0  0  0  0  0  0999 V2000
    3.8776    1.6263    0.4766 C   0  0  0  0  0  0  0  0  0  0  0  0
    2.4706    1.1033    0.3020 C   0  0  0  0  0  0  0  0  0  0  0  0
    1.4141    1.8782    0.3908 N   0  0  0  0  0  0  0  0  0  0  0  0
    0.1807    1.3747    0.2293 C   0  0  0  0  0  0  0  0  0  0  0  0
   -0.0508    0.0479   -0.0331 C   0  0  0  0  0  0  0  0  0  0  0  0
   -1.4072   -0.5201   -0.2134 C   0  0  0  0  0  0  0  0  0  0  0  0
   -2.3424    0.4966   -0.0725 O   0  0  0  0  0  0  0  0  0  0  0  0
   -3.9158   -0.0230   -0.2553 P   0  0  0  0  0  5  0  0  0  0  0  0
   -4.0210   -1.1229   -1.2870 O   0  0  0  0  0  0  0  0  0  0  0  0
   -4.8762    1.2745   -0.7701 O   0  0  0  0  0  0  0  0  0  0  0  0
   -4.5234   -0.5700    1.2421 O   0  0  0  0  0  0  0  0  0  0  0  0
    1.0592   -0.8019   -0.1331 C   0  0  0  0  0  0  0  0  0  0  0  0
    0.8084   -2.2035   -0.4106 C   0  0  0  0  0  0  0  0  0  0  0  0
    1.6730   -3.0863   -0.5301 O   0  0  0  0  0  0  0  0  0  0  0  0
    2.3273   -0.2555    0.0384 C   0  0  0  0  0  0  0  0  0  0  0  0
    3.4668   -1.0110   -0.0423 O   0  0  0  0  0  0  0  0  0  0  0  0
    4.0495    1.6849    1.5698 H   0  0  0  0  0  0  0  0  0  0  0  0
    4.5791    0.9411    0.0048 H   0  0  0  0  0  0  0  0  0  0  0  0
    3.8717    2.6346    0.0052 H   0  0  0  0  0  0  0  0  0  0  0  0
   -0.7016    2.0155    0.3023 H   0  0  0  0  0  0  0  0  0  0  0  0
   -1.6479   -1.2840    0.5803 H   0  0  0  0  0  0  0  0  0  0  0  0
   -1.4369   -0.9953   -1.2059 H   0  0  0  0  0  0  0  0  0  0  0  0
   -4.2994    1.8056   -1.3934 H   0  0  0  0  0  0  0  0  0  0  0  0
   -3.8277   -0.5044    1.9554 H   0  0  0  0  0  0  0  0  0  0  0  0
   -0.2145   -2.5332   -0.5280 H   0  0  0  0  0  0  0  0  0  0  0  0
    3.4870   -1.9721   -0.2222 H   0  0  0  0  0  0  0  0  0  0  0  0
  1  2  1  0
  2  3  2  0
  3  4  1  0
  4  5  2  0
  5  6  1  0
  6  7  1  0
  7  8  1  0
  8  9  2  0
  8 10  1  0
  8 11  1  0
  5 12  1  0
 12 13  1  0
 13 14  2  0
 12 15  2  0
 15 16  1  0
 15  2  1  0
  1 17  1  0
  1 18  1  0
  1 19  1  0
  4 20  1  0
  6 21  1  0
  6 22  1  0
 10 23  1  0
 11 24  1  0
 13 25  1  0
 16 26  1  0
M  END
$$$$

     RDKit          3D

 26 26  0  0  0  0  0  0  0  0999 V2000
    4.2442    1.1320   -0.3231 C   0  0  0  0  0  0  0  0  0  0  0  0
    2.7884    0.8995   -0.4484 C   0  0  0  0  0  0  0  0  0  0  0  0
    1.9755    1.6709   -1.1725 N   0  0  0  0  0  0  0  0  0  0  0  0
    0.6302    1.4425   -1.2123 C   0  0  0  0  0  0  0  0  0  0  0  0
    0.0437    0.4190   -0.5046 C   0  0  0  0  0  0  0  0  0  0  0  0
   -1.3814    0.2924   -0.4224 C   0  0  0  0  0  0  0  0  0  0  0  0
   -2.0323   -0.8898   -0.7548 O   0  0  0  0  0  0  0  0  0  0  0  0
   -3.7289   -0.5026   -0.5533 P   0  0  0  0  0  5  0  0  0  0  0  0
   -3.8929    0.4893    0.5827 O   0  0  0  0  0  0  0  0  0  0  0  0
   -4.6257   -1.9232   -0.2818 O   0  0  0  0  0  0  0  0  0  0  0  0
   -4.1742    0.2263   -2.0153 O   0  0  0  0  0  0  0  0  0  0  0  0
    0.9010   -0.4178    0.2658 C   0  0  0  0  0  0  0  0  0  0  0  0
    0.2248   -1.5219    0.9429 C   0  0  0  0  0  0  0  0  0  0  0  0
    0.9926   -2.3287    1.5864 O   0  0  0  0  0  0  0  0  0  0  0  0
    2.2534   -0.1994    0.2949 C   0  0  0  0  0  0  0  0  0  0  0  0
    3.1661   -0.9328    0.9805 O   0  0  0  0  0  0  0  0  0  0  0  0
    4.6603    1.6960   -1.1728 H   0  0  0  0  0  0  0  0  0  0  0  0
    4.8131    0.1888   -0.0688 H   0  0  0  0  0  0  0  0  0  0  0  0
    4.3932    1.8413    0.5688 H   0  0  0  0  0  0  0  0  0  0  0  0
   -0.0139    2.0861   -1.8326 H   0  0  0  0  0  0  0  0  0  0  0  0
   -1.7582    0.7093    0.5462 H   0  0  0  0  0  0  0  0  0  0  0  0
   -1.8259    1.0967   -1.2134 H   0  0  0  0  0  0  0  0  0  0  0  0
   -5.1761   -1.7553    0.5470 H   0  0  0  0  0  0  0  0  0  0  0  0
   -4.7973   -0.2821   -2.5388 H   0  0  0  0  0  0  0  0  0  0  0  0
   -0.7964   -1.7728    0.9998 H   0  0  0  0  0  0  0  0  0  0  0  0
    3.1166   -1.6637    1.5625 H   0  0  0  0  0  0  0  0  0  0  0  0
  1  2  1  0
  2  3  2  0
  3  4  1  0
  4  5  2  0
  5  6  1  0
  6  7  1  0
  7  8  1  0
  8  9  2  0
  8 10  1  0
  8 11  1  0
  5 12  1  0
 12 13  1  0
 13 14  2  0
 12 15  2  0
 15 16  1  0
 15  2  1  0
  1 17  1  0
  1 18  1  0
  1 19  1  0
  4 20  1  0
  6 21  1  0
  6 22  1  0
 10 23  1  0
 11 24  1  0
 13 25  1  0
 16 26  1  0
M  END
$$$$

     RDKit          3D

 26 26  0  0  0  0  0  0  0  0999 V2000
   -4.0342   -0.7725    1.2577 C   0  0  0  0  0  0  0  0  0  0  0  0
   -2.6092   -0.5284    0.8732 C   0  0  0  0  0  0  0  0  0  0  0  0
   -1.6233   -1.0833    1.5759 N   0  0  0  0  0  0  0  0  0  0  0  0
   -0.3338   -0.8817    1.2538 C   0  0  0  0  0  0  0  0  0  0  0  0
    0.0208   -0.0963    0.1881 C   0  0  0  0  0  0  0  0  0  0  0  0
    1.4606    0.1077   -0.1435 C   0  0  0  0  0  0  0  0  0  0  0  0
    2.2741   -0.5852    0.7510 O   0  0  0  0  0  0  0  0  0  0  0  0
    3.8865   -0.2915    0.2924 P   0  0  0  0  0  5  0  0  0  0  0  0
    3.9533   -0.5194   -1.2042 O   0  0  0  0  0  0  0  0  0  0  0  0
    4.3200    1.3187    0.6729 O   0  0  0  0  0  0  0  0  0  0  0  0
    4.9564   -1.3355    1.0413 O   0  0  0  0  0  0  0  0  0  0  0  0
   -0.9784    0.5114   -0.5848 C   0  0  0  0  0  0  0  0  0  0  0  0
   -0.5800    1.3302   -1.6969 C   0  0  0  0  0  0  0  0  0  0  0  0
   -1.3752    1.9087   -2.4390 O   0  0  0  0  0  0  0  0  0  0  0  0
   -2.2721    0.2767   -0.2181 C   0  0  0  0  0  0  0  0  0  0  0  0
   -3.3447    0.8067   -0.8840 O   0  0  0  0  0  0  0  0  0  0  0  0
   -4.6653   -0.5354    0.3647 H   0  0  0  0  0  0  0  0  0  0  0  0
   -4.2017   -1.7787    1.6441 H   0  0  0  0  0  0  0  0  0  0  0  0
   -4.2842    0.0351    2.0026 H   0  0  0  0  0  0  0  0  0  0  0  0
    0.4754   -1.3439    1.8395 H   0  0  0  0  0  0  0  0  0  0  0  0
    1.7432    1.1806   -0.0585 H   0  0  0  0  0  0  0  0  0  0  0  0
    1.6644   -0.2736   -1.1747 H   0  0  0  0  0  0  0  0  0  0  0  0
    3.7652    1.9583    0.1426 H   0  0  0  0  0  0  0  0  0  0  0  0
    4.6387   -2.2597    0.9635 H   0  0  0  0  0  0  0  0  0  0  0  0
    0.4694    1.4596   -1.9127 H   0  0  0  0  0  0  0  0  0  0  0  0
   -3.3258    1.3915   -1.6674 H   0  0  0  0  0  0  0  0  0  0  0  0
  1  2  1  0
  2  3  2  0
  3  4  1  0
  4  5  2  0
  5  6  1  0
  6  7  1  0
  7  8  1  0
  8  9  2  0
  8 10  1  0
  8 11  1  0
  5 12  1  0
 12 13  1  0
 13 14  2  0
 12 15  2  0
 15 16  1  0
 15  2  1  0
  1 17  1  0
  1 18  1  0
  1 19  1  0
  4 20  1  0
  6 21  1  0
  6 22  1  0
 10 23  1  0
 11 24  1  0
 13 25  1  0
 16 26  1  0
M  END
$$$$

     RDKit          3D

 26 26  0  0  0  0  0  0  0  0999 V2000
    4.2799    0.7456   -0.2427 C   0  0  0  0  0  0  0  0  0  0  0  0
    2.8283    0.6154   -0.1250 C   0  0  0  0  0  0  0  0  0  0  0  0
    2.0139    1.6632   -0.0933 N   0  0  0  0  0  0  0  0  0  0  0  0
    0.6732    1.5578    0.0359 C   0  0  0  0  0  0  0  0  0  0  0  0
    0.0454    0.3474    0.1547 C   0  0  0  0  0  0  0  0  0  0  0  0
   -1.3304    0.1919    0.5618 C   0  0  0  0  0  0  0  0  0  0  0  0
   -2.2003    0.4301   -0.5757 O   0  0  0  0  0  0  0  0  0  0  0  0
   -3.7443    0.1908    0.0643 P   0  0  0  0  0  5  0  0  0  0  0  0
   -3.6934   -0.8296    1.2054 O   0  0  0  0  0  0  0  0  0  0  0  0
   -4.2389    1.7224    0.6590 O   0  0  0  0  0  0  0  0  0  0  0  0
   -4.8090   -0.4225   -1.0533 O   0  0  0  0  0  0  0  0  0  0  0  0
    0.8868   -0.7814    0.1100 C   0  0  0  0  0  0  0  0  0  0  0  0
    0.2058   -2.0725    0.1376 C   0  0  0  0  0  0  0  0  0  0  0  0
    0.7858   -3.1764    0.0760 O   0  0  0  0  0  0  0  0  0  0  0  0
    2.2463   -0.6588   -0.0285 C   0  0  0  0  0  0  0  0  0  0  0  0
    3.1328   -1.7048   -0.0847 O   0  0  0  0  0  0  0  0  0  0  0  0
    4.6028    1.5199   -0.9370 H   0  0  0  0  0  0  0  0  0  0  0  0
    4.7780   -0.2405   -0.4171 H   0  0  0  0  0  0  0  0  0  0  0  0
    4.6789    1.0680    0.7886 H   0  0  0  0  0  0  0  0  0  0  0  0
    0.1718    2.5501   -0.0097 H   0  0  0  0  0  0  0  0  0  0  0  0
   -1.6885   -0.4111    1.3378 H   0  0  0  0  0  0  0  0  0  0  0  0
   -1.5409    1.3155    1.0616 H   0  0  0  0  0  0  0  0  0  0  0  0
   -4.6050    2.2535   -0.0623 H   0  0  0  0  0  0  0  0  0  0  0  0
   -5.4958   -1.0150   -0.6578 H   0  0  0  0  0  0  0  0  0  0  0  0
   -0.8958   -2.1797    0.2183 H   0  0  0  0  0  0  0  0  0  0  0  0
    2.9127   -2.6795   -0.0047 H   0  0  0  0  0  0  0  0  0  0  0  0
  1  2  1  0
  2  3  2  0
  3  4  1  0
  4  5  2  0
  5  6  1  0
  6  7  1  0
  7  8  1  0
  8  9  2  0
  8 10  1  0
  8 11  1  0
  5 12  1  0
 12 13  1  0
 13 14  2  0
 12 15  2  0
 15 16  1  0
 15  2  1  0
  1 17  1  0
  1 18  1  0
  1 19  1  0
  4 20  1  0
  6 21  1  0
  6 22  1  0
 10 23  1  0
 11 24  1  0
 13 25  1  0
 16 26  1  0
M  END
$$$$

     RDKit          3D

 26 26  0  0  0  0  0  0  0  0999 V2000
   -3.9781    1.3727   -0.1467 C   0  0  0  0  0  0  0  0  0  0  0  0
   -2.5677    0.9079   -0.1595 C   0  0  0  0  0  0  0  0  0  0  0  0
   -1.6237    1.6013   -0.7995 N   0  0  0  0  0  0  0  0  0  0  0  0
   -0.3434    1.1788   -0.8107 C   0  0  0  0  0  0  0  0  0  0  0  0
    0.0193    0.0217   -0.1619 C   0  0  0  0  0  0  0  0  0  0  0  0
    1.4202   -0.4765   -0.1516 C   0  0  0  0  0  0  0  0  0  0  0  0
    2.1983    0.4113   -0.8779 O   0  0  0  0  0  0  0  0  0  0  0  0
    3.8031    0.0056   -0.9699 P   0  0  0  0  0  5  0  0  0  0  0  0
    4.0343   -0.7208   -2.2915 O   0  0  0  0  0  0  0  0  0  0  0  0
    4.3357   -1.0047    0.2514 O   0  0  0  0  0  0  0  0  0  0  0  0
    4.7544    1.4112   -1.0132 O   0  0  0  0  0  0  0  0  0  0  0  0
   -0.9751   -0.7097    0.5129 C   0  0  0  0  0  0  0  0  0  0  0  0
   -0.5241   -1.9072    1.1681 C   0  0  0  0  0  0  0  0  0  0  0  0
   -1.2879   -2.6524    1.8018 O   0  0  0  0  0  0  0  0  0  0  0  0
   -2.2776   -0.2911    0.5314 C   0  0  0  0  0  0  0  0  0  0  0  0
   -3.2933   -0.9475    1.1637 O   0  0  0  0  0  0  0  0  0  0  0  0
   -4.3409    1.6481   -1.1658 H   0  0  0  0  0  0  0  0  0  0  0  0
   -4.1029    2.2804    0.4971 H   0  0  0  0  0  0  0  0  0  0  0  0
   -4.6579    0.6097    0.2378 H   0  0  0  0  0  0  0  0  0  0  0  0
    0.4200    1.7465   -1.3327 H   0  0  0  0  0  0  0  0  0  0  0  0
    1.5152   -1.4880   -0.5930 H   0  0  0  0  0  0  0  0  0  0  0  0
    1.7348   -0.4814    0.9175 H   0  0  0  0  0  0  0  0  0  0  0  0
    4.1238   -0.6865    1.1631 H   0  0  0  0  0  0  0  0  0  0  0  0
    4.3051    2.1816   -0.5860 H   0  0  0  0  0  0  0  0  0  0  0  0
    0.5212   -2.2361    1.1488 H   0  0  0  0  0  0  0  0  0  0  0  0
   -3.2126   -1.7748    1.6662 H   0  0  0  0  0  0  0  0  0  0  0  0
  1  2  1  0
  2  3  2  0
  3  4  1  0
  4  5  2  0
  5  6  1  0
  6  7  1  0
  7  8  1  0
  8  9  2  0
  8 10  1  0
  8 11  1  0
  5 12  1  0
 12 13  1  0
 13 14  2  0
 12 15  2  0
 15 16  1  0
 15  2  1  0
  1 17  1  0
  1 18  1  0
  1 19  1  0
  4 20  1  0
  6 21  1  0
  6 22  1  0
 10 23  1  0
 11 24  1  0
 13 25  1  0
 16 26  1  0
M  END
$$$$

     RDKit          3D

 26 26  0  0  0  0  0  0  0  0999 V2000
   -3.9760    1.2944   -0.2901 C   0  0  0  0  0  0  0  0  0  0  0  0
   -2.5519    0.8910   -0.2034 C   0  0  0  0  0  0  0  0  0  0  0  0
   -1.6225    1.8344   -0.3390 N   0  0  0  0  0  0  0  0  0  0  0  0
   -0.3185    1.4489   -0.2571 C   0  0  0  0  0  0  0  0  0  0  0  0
    0.0208    0.1177   -0.0397 C   0  0  0  0  0  0  0  0  0  0  0  0
    1.4460   -0.2233    0.0411 C   0  0  0  0  0  0  0  0  0  0  0  0
    2.2251    0.9174   -0.1332 O   0  0  0  0  0  0  0  0  0  0  0  0
    3.8464    0.4500   -0.0282 P   0  0  0  0  0  5  0  0  0  0  0  0
    4.3972    0.3654   -1.4329 O   0  0  0  0  0  0  0  0  0  0  0  0
    4.6998    1.5911    0.9034 O   0  0  0  0  0  0  0  0  0  0  0  0
    3.9574   -1.0375    0.7569 O   0  0  0  0  0  0  0  0  0  0  0  0
   -0.9646   -0.8332    0.0962 C   0  0  0  0  0  0  0  0  0  0  0  0
   -0.5821   -2.2144    0.3200 C   0  0  0  0  0  0  0  0  0  0  0  0
    0.6059   -2.6012    0.3994 O   0  0  0  0  0  0  0  0  0  0  0  0
   -2.2790   -0.4517    0.0148 C   0  0  0  0  0  0  0  0  0  0  0  0
   -3.3298   -1.3457    0.1407 O   0  0  0  0  0  0  0  0  0  0  0  0
   -4.2399    1.3417   -1.3699 H   0  0  0  0  0  0  0  0  0  0  0  0
   -4.0561    2.3297    0.1406 H   0  0  0  0  0  0  0  0  0  0  0  0
   -4.6022    0.5716    0.2277 H   0  0  0  0  0  0  0  0  0  0  0  0
    0.4794    2.1697   -0.3593 H   0  0  0  0  0  0  0  0  0  0  0  0
    1.7854   -0.9420   -0.7304 H   0  0  0  0  0  0  0  0  0  0  0  0
    1.6133   -0.6298    1.0798 H   0  0  0  0  0  0  0  0  0  0  0  0
    4.0743    2.0737    1.5263 H   0  0  0  0  0  0  0  0  0  0  0  0
    3.9846   -1.7946    0.0927 H   0  0  0  0  0  0  0  0  0  0  0  0
   -1.3576   -2.9895    0.4302 H   0  0  0  0  0  0  0  0  0  0  0  0
   -3.2553   -2.3338    0.2992 H   0  0  0  0  0  0  0  0  0  0  0  0
  1  2  1  0
  2  3  2  0
  3  4  1  0
  4  5  2  0
  5  6  1  0
  6  7  1  0
  7  8  1  0
  8  9  2  0
  8 10  1  0
  8 11  1  0
  5 12  1  0
 12 13  1  0
 13 14  2  0
 12 15  2  0
 15 16  1  0
 15  2  1  0
  1 17  1  0
  1 18  1  0
  1 19  1  0
  4 20  1  0
  6 21  1  0
  6 22  1  0
 10 23  1  0
 11 24  1  0
 13 25  1  0
 16 26  1  0
M  END
$$$$

     RDKit          3D

 26 26  0  0  0  0  0  0  0  0999 V2000
   -4.1623   -0.6243   -1.0230 C   0  0  0  0  0  0  0  0  0  0  0  0
   -2.6981   -0.4522   -0.7977 C   0  0  0  0  0  0  0  0  0  0  0  0
   -1.7786   -0.8583   -1.6695 N   0  0  0  0  0  0  0  0  0  0  0  0
   -0.4670   -0.6843   -1.4285 C   0  0  0  0  0  0  0  0  0  0  0  0
   -0.0270   -0.0838   -0.2791 C   0  0  0  0  0  0  0  0  0  0  0  0
    1.4141    0.1233    0.0173 C   0  0  0  0  0  0  0  0  0  0  0  0
    2.2334   -0.3488   -0.9770 O   0  0  0  0  0  0  0  0  0  0  0  0
    3.8369   -0.0612   -0.5346 P   0  0  0  0  0  5  0  0  0  0  0  0
    3.8565    1.0955    0.4383 O   0  0  0  0  0  0  0  0  0  0  0  0
    4.4249   -1.4781    0.1763 O   0  0  0  0  0  0  0  0  0  0  0  0
    4.7709    0.3937   -1.8662 O   0  0  0  0  0  0  0  0  0  0  0  0
   -0.9950    0.3478    0.6467 C   0  0  0  0  0  0  0  0  0  0  0  0
   -0.5187    0.9801    1.8558 C   0  0  0  0  0  0  0  0  0  0  0  0
   -1.2916    1.3964    2.7362 O   0  0  0  0  0  0  0  0  0  0  0  0
   -2.3454    0.1793    0.4197 C   0  0  0  0  0  0  0  0  0  0  0  0
   -3.3550    0.5678    1.2638 O   0  0  0  0  0  0  0  0  0  0  0  0
   -4.6486    0.3859   -1.0831 H   0  0  0  0  0  0  0  0  0  0  0  0
   -4.3481   -1.2182   -1.9305 H   0  0  0  0  0  0  0  0  0  0  0  0
   -4.5488   -1.1568   -0.1204 H   0  0  0  0  0  0  0  0  0  0  0  0
    0.3013   -1.0148   -2.1394 H   0  0  0  0  0  0  0  0  0  0  0  0
    1.6127   -0.3550    1.0055 H   0  0  0  0  0  0  0  0  0  0  0  0
    1.6106    1.2141    0.1708 H   0  0  0  0  0  0  0  0  0  0  0  0
    5.1935   -1.7969   -0.3766 H   0  0  0  0  0  0  0  0  0  0  0  0
    4.6071    1.3496   -2.0658 H   0  0  0  0  0  0  0  0  0  0  0  0
    0.5726    1.0938    1.9950 H   0  0  0  0  0  0  0  0  0  0  0  0
   -3.2503    1.0054    2.1181 H   0  0  0  0  0  0  0  0  0  0  0  0
  1  2  1  0
  2  3  2  0
  3  4  1  0
  4  5  2  0
  5  6  1  0
  6  7  1  0
  7  8  1  0
  8  9  2  0
  8 10  1  0
  8 11  1  0
  5 12  1  0
 12 13  1  0
 13 14  2  0
 12 15  2  0
 15 16  1  0
 15  2  1  0
  1 17  1  0
  1 18  1  0
  1 19  1  0
  4 20  1  0
  6 21  1  0
  6 22  1  0
 10 23  1  0
 11 24  1  0
 13 25  1  0
 16 26  1  0
M  END
$$$$

     RDKit          3D

 26 26  0  0  0  0  0  0  0  0999 V2000
   -3.7310    1.4054    0.0641 C   0  0  0  0  0  0  0  0  0  0  0  0
   -2.3847    0.8386    0.0552 C   0  0  0  0  0  0  0  0  0  0  0  0
   -1.3429    1.6747   -0.4238 N   0  0  0  0  0  0  0  0  0  0  0  0
   -0.1813    1.0106   -0.4814 C   0  0  0  0  0  0  0  0  0  0  0  0
    0.0622   -0.2124   -0.1988 C   0  0  0  0  0  0  0  0  0  0  0  0
    1.3792   -0.9377    0.0563 C   0  0  0  0  0  0  0  0  0  0  0  0
    2.2999   -0.3979    0.9619 O   0  0  0  0  0  0  0  0  0  0  0  0
    3.3153    0.7501    0.4649 P   0  0  0  0  0  5  0  0  0  0  0  0
    2.7164    2.0294    0.1558 O   0  0  0  0  0  0  0  0  0  0  0  0
    4.6123    0.9438    1.6357 O   0  0  0  0  0  0  0  0  0  0  0  0
    4.1289    0.0038   -0.8975 O   0  0  0  0  0  0  0  0  0  0  0  0
   -0.9769   -1.1169    0.1833 C   0  0  0  0  0  0  0  0  0  0  0  0
   -0.7824   -2.5405    0.3807 C   0  0  0  0  0  0  0  0  0  0  0  0
   -0.5845   -3.0377   -0.8971 O   0  0  0  0  0  0  0  0  0  0  0  0
   -2.1335   -0.4896    0.3198 C   0  0  0  0  0  0  0  0  0  0  0  0
   -3.1795   -1.3514    0.8582 O   0  0  0  0  0  0  0  0  0  0  0  0
   -4.2585    0.9221   -0.8282 H   0  0  0  0  0  0  0  0  0  0  0  0
   -3.7149    2.4756   -0.1076 H   0  0  0  0  0  0  0  0  0  0  0  0
   -4.2663    1.1819    0.9863 H   0  0  0  0  0  0  0  0  0  0  0  0
    0.5843    1.5272   -1.1376 H   0  0  0  0  0  0  0  0  0  0  0  0
    1.9546   -0.5679   -1.0077 H   0  0  0  0  0  0  0  0  0  0  0  0
    1.4328   -1.9847    0.0418 H   0  0  0  0  0  0  0  0  0  0  0  0
    5.2935    1.5304    1.1974 H   0  0  0  0  0  0  0  0  0  0  0  0
    4.0835    0.5600   -1.6742 H   0  0  0  0  0  0  0  0  0  0  0  0
   -0.7620   -3.1075    1.1697 H   0  0  0  0  0  0  0  0  0  0  0  0
   -3.5646   -1.1094    1.6924 H   0  0  0  0  0  0  0  0  0  0  0  0
  1  2  1  0
  2  3  2  0
  3  4  1  0
  4  5  2  0
  5  6  1  0
  6  7  1  0
  7  8  1  0
  8  9  2  0
  8 10  1  0
  8 11  1  0
  5 12  1  0
 12 13  1  0
 13 14  2  0
 12 15  2  0
 15 16  1  0
 15  2  1  0
  1 17  1  0
  1 18  1  0
  1 19  1  0
  4 20  1  0
  6 21  1  0
  6 22  1  0
 10 23  1  0
 11 24  1  0
 13 25  1  0
 16 26  1  0
M  END
$$$$

     RDKit          3D

 26 26  0  0  0  0  0  0  0  0999 V2000
    3.2897   -1.7398    0.7343 C   0  0  0  0  0  0  0  0  0  0  0  0
    2.0808   -1.0247    0.2515 C   0  0  0  0  0  0  0  0  0  0  0  0
    1.0514   -1.6742   -0.2973 N   0  0  0  0  0  0  0  0  0  0  0  0
   -0.0506   -1.0237   -0.7367 C   0  0  0  0  0  0  0  0  0  0  0  0
   -0.1697    0.3431   -0.6398 C   0  0  0  0  0  0  0  0  0  0  0  0
   -1.3664    1.0135   -1.1496 C   0  0  0  0  0  0  0  0  0  0  0  0
   -2.3373    0.1784   -1.6096 O   0  0  0  0  0  0  0  0  0  0  0  0
   -3.0857   -0.7947   -0.4748 P   0  0  0  0  0  5  0  0  0  0  0  0
   -3.4213   -2.1473   -1.0709 O   0  0  0  0  0  0  0  0  0  0  0  0
   -4.5982   -0.1086   -0.0576 O   0  0  0  0  0  0  0  0  0  0  0  0
   -2.2357   -0.9837    0.9541 O   0  0  0  0  0  0  0  0  0  0  0  0
    0.8900    1.0604   -0.0719 C   0  0  0  0  0  0  0  0  0  0  0  0
    0.7960    2.5058    0.0231 C   0  0  0  0  0  0  0  0  0  0  0  0
   -0.1896    3.1487   -0.3699 O   0  0  0  0  0  0  0  0  0  0  0  0
    1.9848    0.3548    0.3580 C   0  0  0  0  0  0  0  0  0  0  0  0
    3.0609    0.9765    0.9245 O   0  0  0  0  0  0  0  0  0  0  0  0
    3.8109   -1.1643    1.5369 H   0  0  0  0  0  0  0  0  0  0  0  0
    4.0215   -1.9372   -0.0728 H   0  0  0  0  0  0  0  0  0  0  0  0
    2.9696   -2.6922    1.2280 H   0  0  0  0  0  0  0  0  0  0  0  0
   -0.7882   -1.6745   -1.1898 H   0  0  0  0  0  0  0  0  0  0  0  0
   -1.8344    1.6776   -0.3453 H   0  0  0  0  0  0  0  0  0  0  0  0
   -1.1123    1.7246   -1.9702 H   0  0  0  0  0  0  0  0  0  0  0  0
   -4.8538   -0.4770    0.8100 H   0  0  0  0  0  0  0  0  0  0  0  0
   -2.6601   -0.5572    1.7162 H   0  0  0  0  0  0  0  0  0  0  0  0
    1.6430    3.0580    0.4665 H   0  0  0  0  0  0  0  0  0  0  0  0
    3.1048    1.9579    1.0530 H   0  0  0  0  0  0  0  0  0  0  0  0
  1  2  1  0
  2  3  2  0
  3  4  1  0
  4  5  2  0
  5  6  1  0
  6  7  1  0
  7  8  1  0
  8  9  2  0
  8 10  1  0
  8 11  1  0
  5 12  1  0
 12 13  1  0
 13 14  2  0
 12 15  2  0
 15 16  1  0
 15  2  1  0
  1 17  1  0
  1 18  1  0
  1 19  1  0
  4 20  1  0
  6 21  1  0
  6 22  1  0
 10 23  1  0
 11 24  1  0
 13 25  1  0
 16 26  1  0
M  END
$$$$

     RDKit          3D

 26 26  0  0  0  0  0  0  0  0999 V2000
   -3.3173    1.5158    0.4485 C   0  0  0  0  0  0  0  0  0  0  0  0
   -2.0139    0.8064    0.4028 C   0  0  0  0  0  0  0  0  0  0  0  0
   -0.9239    1.3527    0.9383 N   0  0  0  0  0  0  0  0  0  0  0  0
    0.2912    0.7310    0.9155 C   0  0  0  0  0  0  0  0  0  0  0  0
    0.4189   -0.4934    0.3286 C   0  0  0  0  0  0  0  0  0  0  0  0
    1.6561   -1.2918    0.2523 C   0  0  0  0  0  0  0  0  0  0  0  0
    2.7928   -0.7475    0.7467 O   0  0  0  0  0  0  0  0  0  0  0  0
    3.2332    0.6197   -0.1284 P   0  0  0  0  0  5  0  0  0  0  0  0
    4.4778    0.2047   -0.9393 O   0  0  0  0  0  0  0  0  0  0  0  0
    3.6770    1.9250    0.8398 O   0  0  0  0  0  0  0  0  0  0  0  0
    1.9887    0.9881   -1.2094 O   0  0  0  0  0  0  0  0  0  0  0  0
   -0.7208   -1.0661   -0.2315 C   0  0  0  0  0  0  0  0  0  0  0  0
   -0.6317   -2.3772   -0.8662 C   0  0  0  0  0  0  0  0  0  0  0  0
   -1.6735   -2.9013   -1.3764 O   0  0  0  0  0  0  0  0  0  0  0  0
   -1.9352   -0.4185   -0.1951 C   0  0  0  0  0  0  0  0  0  0  0  0
   -3.0267   -1.0281   -0.7626 O   0  0  0  0  0  0  0  0  0  0  0  0
   -3.9358    1.1229    1.2737 H   0  0  0  0  0  0  0  0  0  0  0  0
   -3.8621    1.4172   -0.4968 H   0  0  0  0  0  0  0  0  0  0  0  0
   -3.1094    2.5981    0.6242 H   0  0  0  0  0  0  0  0  0  0  0  0
    1.1414    1.1941    1.3692 H   0  0  0  0  0  0  0  0  0  0  0  0
    1.4577   -2.2910    0.7248 H   0  0  0  0  0  0  0  0  0  0  0  0
    1.7513   -1.5598   -0.8512 H   0  0  0  0  0  0  0  0  0  0  0  0
    3.5855    1.6438    1.7991 H   0  0  0  0  0  0  0  0  0  0  0  0
    2.3189    1.6012   -1.9126 H   0  0  0  0  0  0  0  0  0  0  0  0
    0.2822   -2.9418   -0.9309 H   0  0  0  0  0  0  0  0  0  0  0  0
   -3.9222   -0.6044   -0.7629 H   0  0  0  0  0  0  0  0  0  0  0  0
  1  2  1  0
  2  3  2  0
  3  4  1  0
  4  5  2  0
  5  6  1  0
  6  7  1  0
  7  8  1  0
  8  9  2  0
  8 10  1  0
  8 11  1  0
  5 12  1  0
 12 13  1  0
 13 14  2  0
 12 15  2  0
 15 16  1  0
 15  2  1  0
  1 17  1  0
  1 18  1  0
  1 19  1  0
  4 20  1  0
  6 21  1  0
  6 22  1  0
 10 23  1  0
 11 24  1  0
 13 25  1  0
 16 26  1  0
M  END
$$$$

     RDKit          3D

 26 26  0  0  0  0  0  0  0  0999 V2000
    4.2130    0.8292   -0.2763 C   0  0  0  0  0  0  0  0  0  0  0  0
    2.7264    0.5848   -0.2855 C   0  0  0  0  0  0  0  0  0  0  0  0
    2.0133    1.1038   -1.2829 N   0  0  0  0  0  0  0  0  0  0  0  0
    0.7174    0.9528   -1.3461 C   0  0  0  0  0  0  0  0  0  0  0  0
    0.0011    0.2295   -0.3559 C   0  0  0  0  0  0  0  0  0  0  0  0
   -1.4348    0.1852   -0.4724 C   0  0  0  0  0  0  0  0  0  0  0  0
   -2.0461   -1.0773   -0.4162 O   0  0  0  0  0  0  0  0  0  0  0  0
   -3.7182   -0.7767   -0.6852 P   0  0  0  0  0  5  0  0  0  0  0  0
   -4.0110   -0.7629   -2.1880 O   0  0  0  0  0  0  0  0  0  0  0  0
   -4.7061   -1.8307    0.1458 O   0  0  0  0  0  0  0  0  0  0  0  0
   -4.0480    0.8201   -0.1646 O   0  0  0  0  0  0  0  0  0  0  0  0
    0.7540   -0.3025    0.6744 C   0  0  0  0  0  0  0  0  0  0  0  0
    0.0718   -1.0485    1.6896 C   0  0  0  0  0  0  0  0  0  0  0  0
    0.7550   -1.5746    2.6351 O   0  0  0  0  0  0  0  0  0  0  0  0
    2.1286   -0.1226    0.7036 C   0  0  0  0  0  0  0  0  0  0  0  0
    2.8252   -0.6822    1.7691 O   0  0  0  0  0  0  0  0  0  0  0  0
    4.5457    1.0782    0.7457 H   0  0  0  0  0  0  0  0  0  0  0  0
    4.3849    1.7589   -0.8693 H   0  0  0  0  0  0  0  0  0  0  0  0
    4.6839   -0.0238   -0.7476 H   0  0  0  0  0  0  0  0  0  0  0  0
    0.1550    1.3987   -2.1797 H   0  0  0  0  0  0  0  0  0  0  0  0
   -1.9048    0.8587    0.2603 H   0  0  0  0  0  0  0  0  0  0  0  0
   -1.7278    0.5728   -1.5166 H   0  0  0  0  0  0  0  0  0  0  0  0
   -5.3292   -1.2741    0.6749 H   0  0  0  0  0  0  0  0  0  0  0  0
   -3.9109    0.8383    0.8401 H   0  0  0  0  0  0  0  0  0  0  0  0
   -0.9791   -1.1841    1.6997 H   0  0  0  0  0  0  0  0  0  0  0  0
    3.8405   -0.5512    1.7916 H   0  0  0  0  0  0  0  0  0  0  0  0
  1  2  1  0
  2  3  2  0
  3  4  1  0
  4  5  2  0
  5  6  1  0
  6  7  1  0
  7  8  1  0
  8  9  2  0
  8 10  1  0
  8 11  1  0
  5 12  1  0
 12 13  1  0
 13 14  2  0
 12 15  2  0
 15 16  1  0
 15  2  1  0
  1 17  1  0
  1 18  1  0
  1 19  1  0
  4 20  1  0
  6 21  1  0
  6 22  1  0
 10 23  1  0
 11 24  1  0
 13 25  1  0
 16 26  1  0
M  END
$$$$

     RDKit          3D

 26 26  0  0  0  0  0  0  0  0999 V2000
   -3.7308    1.6613   -0.7728 C   0  0  0  0  0  0  0  0  0  0  0  0
   -2.4119    1.0979   -0.4304 C   0  0  0  0  0  0  0  0  0  0  0  0
   -1.3192    1.8870   -0.5122 N   0  0  0  0  0  0  0  0  0  0  0  0
   -0.1291    1.3990   -0.2093 C   0  0  0  0  0  0  0  0  0  0  0  0
    0.0462    0.0961    0.1936 C   0  0  0  0  0  0  0  0  0  0  0  0
    1.3894   -0.3874    0.5139 C   0  0  0  0  0  0  0  0  0  0  0  0
    2.3266    0.6383    0.3448 O   0  0  0  0  0  0  0  0  0  0  0  0
    3.8413   -0.0017    0.7333 P   0  0  0  0  0  5  0  0  0  0  0  0
    4.1311    0.2679    2.2095 O   0  0  0  0  0  0  0  0  0  0  0  0
    5.0761    0.7253   -0.1440 O   0  0  0  0  0  0  0  0  0  0  0  0
    3.8010   -1.6773    0.5261 O   0  0  0  0  0  0  0  0  0  0  0  0
   -1.0568   -0.7376    0.2871 C   0  0  0  0  0  0  0  0  0  0  0  0
   -0.9143   -2.1277    0.7120 C   0  0  0  0  0  0  0  0  0  0  0  0
    0.1806   -2.6554    1.0142 O   0  0  0  0  0  0  0  0  0  0  0  0
   -2.2869   -0.1973   -0.0365 C   0  0  0  0  0  0  0  0  0  0  0  0
   -3.3955   -1.0279    0.0552 O   0  0  0  0  0  0  0  0  0  0  0  0
   -4.1106    1.2694   -1.7399 H   0  0  0  0  0  0  0  0  0  0  0  0
   -4.4505    1.4944    0.0496 H   0  0  0  0  0  0  0  0  0  0  0  0
   -3.6687    2.7740   -0.9114 H   0  0  0  0  0  0  0  0  0  0  0  0
    0.7486    2.0478   -0.2793 H   0  0  0  0  0  0  0  0  0  0  0  0
    1.4129   -0.6617    1.5888 H   0  0  0  0  0  0  0  0  0  0  0  0
    1.7018   -1.2706   -0.0794 H   0  0  0  0  0  0  0  0  0  0  0  0
    4.8646    0.8218   -1.1034 H   0  0  0  0  0  0  0  0  0  0  0  0
    4.0894   -1.9497   -0.3973 H   0  0  0  0  0  0  0  0  0  0  0  0
   -1.7978   -2.7443    0.7725 H   0  0  0  0  0  0  0  0  0  0  0  0
   -4.3373   -0.7414   -0.1555 H   0  0  0  0  0  0  0  0  0  0  0  0
  1  2  1  0
  2  3  2  0
  3  4  1  0
  4  5  2  0
  5  6  1  0
  6  7  1  0
  7  8  1  0
  8  9  2  0
  8 10  1  0
  8 11  1  0
  5 12  1  0
 12 13  1  0
 13 14  2  0
 12 15  2  0
 15 16  1  0
 15  2  1  0
  1 17  1  0
  1 18  1  0
  1 19  1  0
  4 20  1  0
  6 21  1  0
  6 22  1  0
 10 23  1  0
 11 24  1  0
 13 25  1  0
 16 26  1  0
M  END
$$$$

     RDKit          3D

 26 26  0  0  0  0  0  0  0  0999 V2000
    4.1010    0.8784   -0.9990 C   0  0  0  0  0  0  0  0  0  0  0  0
    2.6842    0.4796   -0.9469 C   0  0  0  0  0  0  0  0  0  0  0  0
    1.9128    0.3551   -2.0073 N   0  0  0  0  0  0  0  0  0  0  0  0
    0.6102   -0.0278   -1.8984 C   0  0  0  0  0  0  0  0  0  0  0  0
    0.0405   -0.3003   -0.6894 C   0  0  0  0  0  0  0  0  0  0  0  0
   -1.4028   -0.7462   -0.5880 C   0  0  0  0  0  0  0  0  0  0  0  0
   -2.0671    0.1032    0.2760 O   0  0  0  0  0  0  0  0  0  0  0  0
   -3.6739   -0.2133    0.5582 P   0  0  0  0  0  5  0  0  0  0  0  0
   -3.8336   -1.6066    1.1348 O   0  0  0  0  0  0  0  0  0  0  0  0
   -4.2152    0.9165    1.7079 O   0  0  0  0  0  0  0  0  0  0  0  0
   -4.6834   -0.0590   -0.7994 O   0  0  0  0  0  0  0  0  0  0  0  0
    0.8319   -0.1813    0.4429 C   0  0  0  0  0  0  0  0  0  0  0  0
    0.2204   -0.5257    1.6994 C   0  0  0  0  0  0  0  0  0  0  0  0
    0.9249   -0.4460    2.7623 O   0  0  0  0  0  0  0  0  0  0  0  0
    2.1502    0.2141    0.3148 C   0  0  0  0  0  0  0  0  0  0  0  0
    2.9603    0.3499    1.3865 O   0  0  0  0  0  0  0  0  0  0  0  0
    4.5746    0.4475   -1.9222 H   0  0  0  0  0  0  0  0  0  0  0  0
    4.2010    2.0011   -0.9796 H   0  0  0  0  0  0  0  0  0  0  0  0
    4.7121    0.5159   -0.1446 H   0  0  0  0  0  0  0  0  0  0  0  0
    0.0381   -0.1201   -2.8347 H   0  0  0  0  0  0  0  0  0  0  0  0
   -1.8129   -0.5220   -1.6648 H   0  0  0  0  0  0  0  0  0  0  0  0
   -1.5578   -1.7932   -0.3988 H   0  0  0  0  0  0  0  0  0  0  0  0
   -3.9787    1.8346    1.3364 H   0  0  0  0  0  0  0  0  0  0  0  0
   -4.7948   -0.9685   -1.1688 H   0  0  0  0  0  0  0  0  0  0  0  0
   -0.8014   -0.8610    1.8557 H   0  0  0  0  0  0  0  0  0  0  0  0
    2.8592    0.2751    2.3364 H   0  0  0  0  0  0  0  0  0  0  0  0
  1  2  1  0
  2  3  2  0
  3  4  1  0
  4  5  2  0
  5  6  1  0
  6  7  1  0
  7  8  1  0
  8  9  2  0
  8 10  1  0
  8 11  1  0
  5 12  1  0
 12 13  1  0
 13 14  2  0
 12 15  2  0
 15 16  1  0
 15  2  1  0
  1 17  1  0
  1 18  1  0
  1 19  1  0
  4 20  1  0
  6 21  1  0
  6 22  1  0
 10 23  1  0
 11 24  1  0
 13 25  1  0
 16 26  1  0
M  END
$$$$

     RDKit          3D

 26 26  0  0  0  0  0  0  0  0999 V2000
    4.2433    0.5997    0.3293 C   0  0  0  0  0  0  0  0  0  0  0  0
    2.7548    0.4657    0.2703 C   0  0  0  0  0  0  0  0  0  0  0  0
    1.9345    1.3820    0.7712 N   0  0  0  0  0  0  0  0  0  0  0  0
    0.5971    1.2927    0.7349 C   0  0  0  0  0  0  0  0  0  0  0  0
    0.0361    0.1883    0.1449 C   0  0  0  0  0  0  0  0  0  0  0  0
   -1.4333    0.0582    0.0877 C   0  0  0  0  0  0  0  0  0  0  0  0
   -2.0302    1.1567    0.6849 O   0  0  0  0  0  0  0  0  0  0  0  0
   -3.7065    1.0114    0.6214 P   0  0  0  0  0  5  0  0  0  0  0  0
   -4.3633    1.5773    1.8649 O   0  0  0  0  0  0  0  0  0  0  0  0
   -4.2397    1.7977   -0.7694 O   0  0  0  0  0  0  0  0  0  0  0  0
   -4.0747   -0.6326    0.4996 O   0  0  0  0  0  0  0  0  0  0  0  0
    0.8028   -0.8171   -0.4036 C   0  0  0  0  0  0  0  0  0  0  0  0
    0.1270   -1.9432   -1.0043 C   0  0  0  0  0  0  0  0  0  0  0  0
    0.7492   -2.8892   -1.5195 O   0  0  0  0  0  0  0  0  0  0  0  0
    2.1644   -0.6566   -0.3291 C   0  0  0  0  0  0  0  0  0  0  0  0
    3.0297   -1.5792   -0.8339 O   0  0  0  0  0  0  0  0  0  0  0  0
    4.7333   -0.3717    0.1607 H   0  0  0  0  0  0  0  0  0  0  0  0
    4.5539    1.2794   -0.4784 H   0  0  0  0  0  0  0  0  0  0  0  0
    4.5621    0.9822    1.3097 H   0  0  0  0  0  0  0  0  0  0  0  0
   -0.0263    2.0629    1.1554 H   0  0  0  0  0  0  0  0  0  0  0  0
   -1.6844   -0.8889    0.6444 H   0  0  0  0  0  0  0  0  0  0  0  0
   -1.8168    0.0088   -0.9529 H   0  0  0  0  0  0  0  0  0  0  0  0
   -4.6365    1.1921   -1.4330 H   0  0  0  0  0  0  0  0  0  0  0  0
   -4.2343   -0.8519   -0.4529 H   0  0  0  0  0  0  0  0  0  0  0  0
   -0.9500   -1.9925   -1.0214 H   0  0  0  0  0  0  0  0  0  0  0  0
    2.9078   -2.4322   -1.2923 H   0  0  0  0  0  0  0  0  0  0  0  0
  1  2  1  0
  2  3  2  0
  3  4  1  0
  4  5  2  0
  5  6  1  0
  6  7  1  0
  7  8  1  0
  8  9  2  0
  8 10  1  0
  8 11  1  0
  5 12  1  0
 12 13  1  0
 13 14  2  0
 12 15  2  0
 15 16  1  0
 15  2  1  0
  1 17  1  0
  1 18  1  0
  1 19  1  0
  4 20  1  0
  6 21  1  0
  6 22  1  0
 10 23  1  0
 11 24  1  0
 13 25  1  0
 16 26  1  0
M  END
$$$$

     RDKit          3D

 26 26  0  0  0  0  0  0  0  0999 V2000
    4.2794   -0.6909    0.1205 C   0  0  0  0  0  0  0  0  0  0  0  0
    2.7887   -0.5358    0.1446 C   0  0  0  0  0  0  0  0  0  0  0  0
    1.9914   -1.5976   -0.0265 N   0  0  0  0  0  0  0  0  0  0  0  0
    0.6738   -1.4100    0.0029 C   0  0  0  0  0  0  0  0  0  0  0  0
    0.0925   -0.1838    0.1997 C   0  0  0  0  0  0  0  0  0  0  0  0
   -1.3642   -0.0674    0.2176 C   0  0  0  0  0  0  0  0  0  0  0  0
   -1.9909   -1.3190    0.0161 O   0  0  0  0  0  0  0  0  0  0  0  0
   -3.6558   -1.0233    0.0627 P   0  0  0  0  0  5  0  0  0  0  0  0
   -4.1218   -0.8523    1.4943 O   0  0  0  0  0  0  0  0  0  0  0  0
   -3.9113    0.4661   -0.7148 O   0  0  0  0  0  0  0  0  0  0  0  0
   -4.5242   -2.2522   -0.7047 O   0  0  0  0  0  0  0  0  0  0  0  0
    0.9095    0.9114    0.3762 C   0  0  0  0  0  0  0  0  0  0  0  0
    0.3272    2.2542    0.5916 C   0  0  0  0  0  0  0  0  0  0  0  0
   -0.9264    2.4143    0.6167 O   0  0  0  0  0  0  0  0  0  0  0  0
    2.2648    0.7417    0.3496 C   0  0  0  0  0  0  0  0  0  0  0  0
    3.1561    1.7781    0.5167 O   0  0  0  0  0  0  0  0  0  0  0  0
    4.5116   -1.6853    0.5103 H   0  0  0  0  0  0  0  0  0  0  0  0
    4.7360    0.1364    0.7238 H   0  0  0  0  0  0  0  0  0  0  0  0
    4.6044   -0.5477   -0.9357 H   0  0  0  0  0  0  0  0  0  0  0  0
    0.0264   -2.2915   -0.1391 H   0  0  0  0  0  0  0  0  0  0  0  0
   -1.7538    0.3202    1.1849 H   0  0  0  0  0  0  0  0  0  0  0  0
   -1.7536    0.6011   -0.5755 H   0  0  0  0  0  0  0  0  0  0  0  0
   -4.8276    0.8122   -0.4903 H   0  0  0  0  0  0  0  0  0  0  0  0
   -5.2820   -1.8188   -1.1688 H   0  0  0  0  0  0  0  0  0  0  0  0
    0.9150    3.1282    0.7324 H   0  0  0  0  0  0  0  0  0  0  0  0
    2.8349    2.7115    0.6666 H   0  0  0  0  0  0  0  0  0  0  0  0
  1  2  1  0
  2  3  2  0
  3  4  1  0
  4  5  2  0
  5  6  1  0
  6  7  1  0
  7  8  1  0
  8  9  2  0
  8 10  1  0
  8 11  1  0
  5 12  1  0
 12 13  1  0
 13 14  2  0
 12 15  2  0
 15 16  1  0
 15  2  1  0
  1 17  1  0
  1 18  1  0
  1 19  1  0
  4 20  1  0
  6 21  1  0
  6 22  1  0
 10 23  1  0
 11 24  1  0
 13 25  1  0
 16 26  1  0
M  END
$$$$

     RDKit          3D

 26 26  0  0  0  0  0  0  0  0999 V2000
   -4.1490   -0.8715    0.5795 C   0  0  0  0  0  0  0  0  0  0  0  0
   -2.7004   -0.5897    0.3478 C   0  0  0  0  0  0  0  0  0  0  0  0
   -1.7773   -1.5493    0.2795 N   0  0  0  0  0  0  0  0  0  0  0  0
   -0.4688   -1.3458    0.0736 C   0  0  0  0  0  0  0  0  0  0  0  0
   -0.0223   -0.0455   -0.0826 C   0  0  0  0  0  0  0  0  0  0  0  0
    1.4241    0.2212   -0.3189 C   0  0  0  0  0  0  0  0  0  0  0  0
    2.0689   -1.0353   -0.3182 O   0  0  0  0  0  0  0  0  0  0  0  0
    3.7131   -0.8896   -0.5748 P   0  0  0  0  0  5  0  0  0  0  0  0
    3.9613   -0.9804   -2.0679 O   0  0  0  0  0  0  0  0  0  0  0  0
    4.6151   -2.0893    0.1872 O   0  0  0  0  0  0  0  0  0  0  0  0
    4.2310    0.6050    0.0042 O   0  0  0  0  0  0  0  0  0  0  0  0
   -0.9438    1.0087   -0.0209 C   0  0  0  0  0  0  0  0  0  0  0  0
   -0.4467    2.3663   -0.1852 C   0  0  0  0  0  0  0  0  0  0  0  0
    0.7704    2.6255   -0.3803 O   0  0  0  0  0  0  0  0  0  0  0  0
   -2.2700    0.7322    0.1926 C   0  0  0  0  0  0  0  0  0  0  0  0
   -3.2146    1.7327    0.2611 O   0  0  0  0  0  0  0  0  0  0  0  0
   -4.5811   -1.0949   -0.4299 H   0  0  0  0  0  0  0  0  0  0  0  0
   -4.6585   -0.0164    1.0669 H   0  0  0  0  0  0  0  0  0  0  0  0
   -4.1959   -1.8038    1.1765 H   0  0  0  0  0  0  0  0  0  0  0  0
    0.2462   -2.1856    0.0274 H   0  0  0  0  0  0  0  0  0  0  0  0
    1.6146    0.6902   -1.3088 H   0  0  0  0  0  0  0  0  0  0  0  0
    1.8780    0.7818    0.5072 H   0  0  0  0  0  0  0  0  0  0  0  0
    3.9745   -2.7187    0.6151 H   0  0  0  0  0  0  0  0  0  0  0  0
    4.9903    0.5290    0.6244 H   0  0  0  0  0  0  0  0  0  0  0  0
   -1.0924    3.2276   -0.1491 H   0  0  0  0  0  0  0  0  0  0  0  0
   -2.9667    2.6958    0.1576 H   0  0  0  0  0  0  0  0  0  0  0  0
  1  2  1  0
  2  3  2  0
  3  4  1  0
  4  5  2  0
  5  6  1  0
  6  7  1  0
  7  8  1  0
  8  9  2  0
  8 10  1  0
  8 11  1  0
  5 12  1  0
 12 13  1  0
 13 14  2  0
 12 15  2  0
 15 16  1  0
 15  2  1  0
  1 17  1  0
  1 18  1  0
  1 19  1  0
  4 20  1  0
  6 21  1  0
  6 22  1  0
 10 23  1  0
 11 24  1  0
 13 25  1  0
 16 26  1  0
M  END
$$$$

     RDKit          3D

 26 26  0  0  0  0  0  0  0  0999 V2000
    3.9016   -0.7886    0.7023 C   0  0  0  0  0  0  0  0  0  0  0  0
    2.4581   -0.5534    0.3504 C   0  0  0  0  0  0  0  0  0  0  0  0
    1.5188   -1.4898    0.6785 N   0  0  0  0  0  0  0  0  0  0  0  0
    0.1974   -1.3111    0.3110 C   0  0  0  0  0  0  0  0  0  0  0  0
   -0.1576   -0.1889   -0.4015 C   0  0  0  0  0  0  0  0  0  0  0  0
   -1.5102   -0.0850   -1.0100 C   0  0  0  0  0  0  0  0  0  0  0  0
   -2.5921    0.0907   -0.3822 O   0  0  0  0  0  0  0  0  0  0  0  0
   -3.6489   -0.3665    0.6765 P   0  0  0  0  0  5  0  0  0  0  0  0
   -4.9916   -0.9829    0.1556 O   0  0  0  0  0  0  0  0  0  0  0  0
   -3.0213   -1.4588    1.8187 O   0  0  0  0  0  0  0  0  0  0  0  0
   -4.1826    1.0083    1.5439 O   0  0  0  0  0  0  0  0  0  0  0  0
    0.8232    0.7424   -0.7229 C   0  0  0  0  0  0  0  0  0  0  0  0
    0.4634    1.9876   -1.3726 C   0  0  0  0  0  0  0  0  0  0  0  0
   -0.7455    2.1782   -1.7576 O   0  0  0  0  0  0  0  0  0  0  0  0
    2.1679    0.6096   -0.3627 C   0  0  0  0  0  0  0  0  0  0  0  0
    3.1484    1.5283   -0.6444 O   0  0  0  0  0  0  0  0  0  0  0  0
    4.0810   -1.8747    0.8171 H   0  0  0  0  0  0  0  0  0  0  0  0
    4.4984   -0.4249   -0.1845 H   0  0  0  0  0  0  0  0  0  0  0  0
    4.2341   -0.3274    1.6371 H   0  0  0  0  0  0  0  0  0  0  0  0
   -0.5699   -2.0528    0.5554 H   0  0  0  0  0  0  0  0  0  0  0  0
   -1.3830    0.2666   -2.0708 H   0  0  0  0  0  0  0  0  0  0  0  0
   -1.5919   -1.2910   -1.3545 H   0  0  0  0  0  0  0  0  0  0  0  0
   -3.6937   -2.0633    2.1961 H   0  0  0  0  0  0  0  0  0  0  0  0
   -3.4738    1.6962    1.5186 H   0  0  0  0  0  0  0  0  0  0  0  0
    1.1227    2.7538   -1.5638 H   0  0  0  0  0  0  0  0  0  0  0  0
    2.9468    2.3975   -1.1338 H   0  0  0  0  0  0  0  0  0  0  0  0
  1  2  1  0
  2  3  2  0
  3  4  1  0
  4  5  2  0
  5  6  1  0
  6  7  1  0
  7  8  1  0
  8  9  2  0
  8 10  1  0
  8 11  1  0
  5 12  1  0
 12 13  1  0
 13 14  2  0
 12 15  2  0
 15 16  1  0
 15  2  1  0
  1 17  1  0
  1 18  1  0
  1 19  1  0
  4 20  1  0
  6 21  1  0
  6 22  1  0
 10 23  1  0
 11 24  1  0
 13 25  1  0
 16 26  1  0
M  END
$$$$

     RDKit          3D

 26 26  0  0  0  0  0  0  0  0999 V2000
   -4.1700    0.6294    0.4449 C   0  0  0  0  0  0  0  0  0  0  0  0
   -2.6909    0.4820    0.3357 C   0  0  0  0  0  0  0  0  0  0  0  0
   -1.8277    1.3177    0.9362 N   0  0  0  0  0  0  0  0  0  0  0  0
   -0.4935    1.1794    0.8338 C   0  0  0  0  0  0  0  0  0  0  0  0
    0.0248    0.1382    0.0825 C   0  0  0  0  0  0  0  0  0  0  0  0
    1.4905   -0.0562   -0.0583 C   0  0  0  0  0  0  0  0  0  0  0  0
    2.1971    0.9294    0.6478 O   0  0  0  0  0  0  0  0  0  0  0  0
    3.8432    0.6146    0.4206 P   0  0  0  0  0  5  0  0  0  0  0  0
    4.6465    1.0152    1.6504 O   0  0  0  0  0  0  0  0  0  0  0  0
    4.3543    1.5171   -0.9318 O   0  0  0  0  0  0  0  0  0  0  0  0
    4.0340   -1.0353    0.1711 O   0  0  0  0  0  0  0  0  0  0  0  0
   -0.8085   -0.7504   -0.5563 C   0  0  0  0  0  0  0  0  0  0  0  0
   -0.3377   -1.8663   -1.3627 C   0  0  0  0  0  0  0  0  0  0  0  0
    0.8779   -2.1254   -1.5524 O   0  0  0  0  0  0  0  0  0  0  0  0
   -2.1708   -0.5531   -0.4113 C   0  0  0  0  0  0  0  0  0  0  0  0
   -3.0358   -1.4244   -1.0374 O   0  0  0  0  0  0  0  0  0  0  0  0
   -4.4702    1.4948    1.0266 H   0  0  0  0  0  0  0  0  0  0  0  0
   -4.5861    0.6509   -0.5939 H   0  0  0  0  0  0  0  0  0  0  0  0
   -4.5415   -0.3420    0.8814 H   0  0  0  0  0  0  0  0  0  0  0  0
    0.1920    1.8741    1.3330 H   0  0  0  0  0  0  0  0  0  0  0  0
    1.7915   -0.0280   -1.1228 H   0  0  0  0  0  0  0  0  0  0  0  0
    1.7745   -1.0802    0.3160 H   0  0  0  0  0  0  0  0  0  0  0  0
    4.0549    2.4595   -0.7359 H   0  0  0  0  0  0  0  0  0  0  0  0
    4.9529   -1.2519   -0.1117 H   0  0  0  0  0  0  0  0  0  0  0  0
   -1.0732   -2.5074   -1.8237 H   0  0  0  0  0  0  0  0  0  0  0  0
   -4.0280   -1.2817   -0.9325 H   0  0  0  0  0  0  0  0  0  0  0  0
  1  2  1  0
  2  3  2  0
  3  4  1  0
  4  5  2  0
  5  6  1  0
  6  7  1  0
  7  8  1  0
  8  9  2  0
  8 10  1  0
  8 11  1  0
  5 12  1  0
 12 13  1  0
 13 14  2  0
 12 15  2  0
 15 16  1  0
 15  2  1  0
  1 17  1  0
  1 18  1  0
  1 19  1  0
  4 20  1  0
  6 21  1  0
  6 22  1  0
 10 23  1  0
 11 24  1  0
 13 25  1  0
 16 26  1  0
M  END
$$$$

     RDKit          3D

 26 26  0  0  0  0  0  0  0  0999 V2000
   -4.1722    1.0188    0.2075 C   0  0  0  0  0  0  0  0  0  0  0  0
   -2.7813    0.6326   -0.0680 C   0  0  0  0  0  0  0  0  0  0  0  0
   -2.0011    1.4036   -0.8698 N   0  0  0  0  0  0  0  0  0  0  0  0
   -0.6818    1.1958   -1.0708 C   0  0  0  0  0  0  0  0  0  0  0  0
   -0.0498    0.1574   -0.4404 C   0  0  0  0  0  0  0  0  0  0  0  0
    1.3978    0.0466   -0.3063 C   0  0  0  0  0  0  0  0  0  0  0  0
    2.2428   -0.4852   -1.2051 O   0  0  0  0  0  0  0  0  0  0  0  0
    3.7891   -0.3266   -0.4468 P   0  0  0  0  0  5  0  0  0  0  0  0
    4.8446   -0.4128   -1.5233 O   0  0  0  0  0  0  0  0  0  0  0  0
    3.9969   -1.3902    0.7853 O   0  0  0  0  0  0  0  0  0  0  0  0
    3.7325    1.2796    0.2302 O   0  0  0  0  0  0  0  0  0  0  0  0
   -0.8000   -0.6898    0.3959 C   0  0  0  0  0  0  0  0  0  0  0  0
   -0.1724   -1.8697    1.0004 C   0  0  0  0  0  0  0  0  0  0  0  0
    1.1044   -2.0164    0.6924 O   0  0  0  0  0  0  0  0  0  0  0  0
   -2.1298   -0.4647    0.5765 C   0  0  0  0  0  0  0  0  0  0  0  0
   -2.8613   -1.3024    1.3832 O   0  0  0  0  0  0  0  0  0  0  0  0
   -4.0926    2.0613    0.7702 H   0  0  0  0  0  0  0  0  0  0  0  0
   -4.6638    0.3434    0.8597 H   0  0  0  0  0  0  0  0  0  0  0  0
   -4.7352    1.2799   -0.6910 H   0  0  0  0  0  0  0  0  0  0  0  0
   -0.1322    1.8721   -1.7713 H   0  0  0  0  0  0  0  0  0  0  0  0
    1.7660    0.2353    0.7612 H   0  0  0  0  0  0  0  0  0  0  0  0
    1.6501    1.2361   -0.6762 H   0  0  0  0  0  0  0  0  0  0  0  0
    4.8296   -1.8906    0.8429 H   0  0  0  0  0  0  0  0  0  0  0  0
    4.4293    1.8294   -0.1581 H   0  0  0  0  0  0  0  0  0  0  0  0
   -0.6273   -2.5350    1.6043 H   0  0  0  0  0  0  0  0  0  0  0  0
   -3.8822   -1.2085    1.5040 H   0  0  0  0  0  0  0  0  0  0  0  0
  1  2  1  0
  2  3  2  0
  3  4  1  0
  4  5  2  0
  5  6  1  0
  6  7  1  0
  7  8  1  0
  8  9  2  0
  8 10  1  0
  8 11  1  0
  5 12  1  0
 12 13  1  0
 13 14  2  0
 12 15  2  0
 15 16  1  0
 15  2  1  0
  1 17  1  0
  1 18  1  0
  1 19  1  0
  4 20  1  0
  6 21  1  0
  6 22  1  0
 10 23  1  0
 11 24  1  0
 13 25  1  0
 16 26  1  0
M  END
$$$$

     RDKit          3D

 26 26  0  0  0  0  0  0  0  0999 V2000
   -3.6153    0.5023    1.3793 C   0  0  0  0  0  0  0  0  0  0  0  0
   -2.2721    0.3988    0.7264 C   0  0  0  0  0  0  0  0  0  0  0  0
   -1.2448    1.1563    1.1193 N   0  0  0  0  0  0  0  0  0  0  0  0
   -0.0254    1.0514    0.5154 C   0  0  0  0  0  0  0  0  0  0  0  0
    0.2330    0.1776   -0.5182 C   0  0  0  0  0  0  0  0  0  0  0  0
    1.5486    0.0712   -1.1823 C   0  0  0  0  0  0  0  0  0  0  0  0
    2.5505    0.8544   -0.6740 O   0  0  0  0  0  0  0  0  0  0  0  0
    3.0454    0.4899    0.8820 P   0  0  0  0  0  5  0  0  0  0  0  0
    2.1220   -0.4627    1.5736 O   0  0  0  0  0  0  0  0  0  0  0  0
    3.2533    1.8951    1.7797 O   0  0  0  0  0  0  0  0  0  0  0  0
    4.6075   -0.2506    0.8360 O   0  0  0  0  0  0  0  0  0  0  0  0
   -0.8509   -0.6109   -0.9244 C   0  0  0  0  0  0  0  0  0  0  0  0
   -0.6959   -1.5336   -2.0039 C   0  0  0  0  0  0  0  0  0  0  0  0
    0.3906   -1.6670   -2.5970 O   0  0  0  0  0  0  0  0  0  0  0  0
   -2.0850   -0.4979   -0.3060 C   0  0  0  0  0  0  0  0  0  0  0  0
   -3.1534   -1.2545   -0.6821 O   0  0  0  0  0  0  0  0  0  0  0  0
   -3.8460   -0.4727    1.8787 H   0  0  0  0  0  0  0  0  0  0  0  0
   -3.5676    1.2648    2.1844 H   0  0  0  0  0  0  0  0  0  0  0  0
   -4.4136    0.7433    0.6479 H   0  0  0  0  0  0  0  0  0  0  0  0
    0.7450    1.7094    0.8591 H   0  0  0  0  0  0  0  0  0  0  0  0
    1.4117    0.3558   -2.2449 H   0  0  0  0  0  0  0  0  0  0  0  0
    1.8441   -1.0175   -1.1351 H   0  0  0  0  0  0  0  0  0  0  0  0
    4.1160    2.3609    1.5762 H   0  0  0  0  0  0  0  0  0  0  0  0
    4.5336   -1.1670    0.4720 H   0  0  0  0  0  0  0  0  0  0  0  0
   -1.4932   -2.1676   -2.3747 H   0  0  0  0  0  0  0  0  0  0  0  0
   -3.1384   -1.9291   -1.4074 H   0  0  0  0  0  0  0  0  0  0  0  0
  1  2  1  0
  2  3  2  0
  3  4  1  0
  4  5  2  0
  5  6  1  0
  6  7  1  0
  7  8  1  0
  8  9  2  0
  8 10  1  0
  8 11  1  0
  5 12  1  0
 12 13  1  0
 13 14  2  0
 12 15  2  0
 15 16  1  0
 15  2  1  0
  1 17  1  0
  1 18  1  0
  1 19  1  0
  4 20  1  0
  6 21  1  0
  6 22  1  0
 10 23  1  0
 11 24  1  0
 13 25  1  0
 16 26  1  0
M  END
$$$$

     RDKit          3D

 26 26  0  0  0  0  0  0  0  0999 V2000
    4.3267   -0.0667    0.1513 C   0  0  0  0  0  0  0  0  0  0  0  0
    2.8758   -0.1194    0.2327 C   0  0  0  0  0  0  0  0  0  0  0  0
    2.2971   -1.1719    0.8975 N   0  0  0  0  0  0  0  0  0  0  0  0
    0.9948   -1.3575    0.9850 C   0  0  0  0  0  0  0  0  0  0  0  0
    0.1053   -0.4690    0.4033 C   0  0  0  0  0  0  0  0  0  0  0  0
   -1.3481   -0.4030    0.6103 C   0  0  0  0  0  0  0  0  0  0  0  0
   -2.1645   -1.2890   -0.0890 O   0  0  0  0  0  0  0  0  0  0  0  0
   -3.7868   -0.8887    0.1940 P   0  0  0  0  0  5  0  0  0  0  0  0
   -4.2716   -1.9171    1.1607 O   0  0  0  0  0  0  0  0  0  0  0  0
   -4.6208   -0.9145   -1.2505 O   0  0  0  0  0  0  0  0  0  0  0  0
   -3.8888    0.6770    0.8848 O   0  0  0  0  0  0  0  0  0  0  0  0
    0.6455    0.6479   -0.3102 C   0  0  0  0  0  0  0  0  0  0  0  0
   -0.2941    1.3745   -1.1871 C   0  0  0  0  0  0  0  0  0  0  0  0
    0.3427    2.1230   -2.0099 O   0  0  0  0  0  0  0  0  0  0  0  0
    1.9979    0.7737   -0.3521 C   0  0  0  0  0  0  0  0  0  0  0  0
    2.5314    1.8368   -0.9920 O   0  0  0  0  0  0  0  0  0  0  0  0
    4.8380    0.3519    1.0784 H   0  0  0  0  0  0  0  0  0  0  0  0
    4.7092    0.5492   -0.7049 H   0  0  0  0  0  0  0  0  0  0  0  0
    4.7032   -1.1390    0.0349 H   0  0  0  0  0  0  0  0  0  0  0  0
    0.5213   -2.2379    1.4965 H   0  0  0  0  0  0  0  0  0  0  0  0
   -1.7214    0.5720    0.8866 H   0  0  0  0  0  0  0  0  0  0  0  0
   -1.4491   -0.9676    1.6963 H   0  0  0  0  0  0  0  0  0  0  0  0
   -5.5864   -0.6643   -1.0572 H   0  0  0  0  0  0  0  0  0  0  0  0
   -3.9605    1.3724    0.1668 H   0  0  0  0  0  0  0  0  0  0  0  0
   -1.3024    1.3265   -1.1890 H   0  0  0  0  0  0  0  0  0  0  0  0
    3.5056    2.0006   -1.1469 H   0  0  0  0  0  0  0  0  0  0  0  0
  1  2  1  0
  2  3  2  0
  3  4  1  0
  4  5  2  0
  5  6  1  0
  6  7  1  0
  7  8  1  0
  8  9  2  0
  8 10  1  0
  8 11  1  0
  5 12  1  0
 12 13  1  0
 13 14  2  0
 12 15  2  0
 15 16  1  0
 15  2  1  0
  1 17  1  0
  1 18  1  0
  1 19  1  0
  4 20  1  0
  6 21  1  0
  6 22  1  0
 10 23  1  0
 11 24  1  0
 13 25  1  0
 16 26  1  0
M  END
$$$$

     RDKit          3D

 26 26  0  0  0  0  0  0  0  0999 V2000
   -3.0065    2.3632    0.6643 C   0  0  0  0  0  0  0  0  0  0  0  0
   -2.0543    1.3530    0.1237 C   0  0  0  0  0  0  0  0  0  0  0  0
   -1.1902    1.5315   -0.8677 N   0  0  0  0  0  0  0  0  0  0  0  0
   -0.2960    0.6171   -1.1652 C   0  0  0  0  0  0  0  0  0  0  0  0
   -0.2237   -0.5705   -0.4666 C   0  0  0  0  0  0  0  0  0  0  0  0
    0.8705   -1.5594   -0.8832 C   0  0  0  0  0  0  0  0  0  0  0  0
    1.9246   -0.8648   -0.9159 O   0  0  0  0  0  0  0  0  0  0  0  0
    3.1776   -0.0410   -0.9551 P   0  0  0  0  0  5  0  0  0  0  0  0
    3.0161    1.3539   -0.2252 O   0  0  0  0  0  0  0  0  0  0  0  0
    4.4597   -0.7794   -0.0097 O   0  0  0  0  0  0  0  0  0  0  0  0
    3.9760    0.2696   -2.4787 O   0  0  0  0  0  0  0  0  0  0  0  0
   -1.0760   -0.8644    0.5693 C   0  0  0  0  0  0  0  0  0  0  0  0
   -1.1071   -2.1565    1.1679 C   0  0  0  0  0  0  0  0  0  0  0  0
   -2.0791   -2.4152    1.9946 O   0  0  0  0  0  0  0  0  0  0  0  0
   -1.9754    0.1162    0.8598 C   0  0  0  0  0  0  0  0  0  0  0  0
   -2.8930    0.0031    1.9225 O   0  0  0  0  0  0  0  0  0  0  0  0
   -3.8400    1.8289    1.1886 H   0  0  0  0  0  0  0  0  0  0  0  0
   -2.4607    2.8528    1.5684 H   0  0  0  0  0  0  0  0  0  0  0  0
   -3.2829    3.1644   -0.0069 H   0  0  0  0  0  0  0  0  0  0  0  0
    0.3965    0.6879   -1.9812 H   0  0  0  0  0  0  0  0  0  0  0  0
    0.6052   -1.9723   -1.9265 H   0  0  0  0  0  0  0  0  0  0  0  0
    0.8307   -2.3985   -0.1444 H   0  0  0  0  0  0  0  0  0  0  0  0
    4.8643   -0.0515    0.5732 H   0  0  0  0  0  0  0  0  0  0  0  0
    4.4652    1.1557   -2.2751 H   0  0  0  0  0  0  0  0  0  0  0  0
   -0.4608   -2.9589    1.0672 H   0  0  0  0  0  0  0  0  0  0  0  0
   -2.6405   -0.6646    2.6019 H   0  0  0  0  0  0  0  0  0  0  0  0
  1  2  1  0
  2  3  2  0
  3  4  1  0
  4  5  2  0
  5  6  1  0
  6  7  1  0
  7  8  1  0
  8  9  2  0
  8 10  1  0
  8 11  1  0
  5 12  1  0
 12 13  1  0
 13 14  2  0
 12 15  2  0
 15 16  1  0
 15  2  1  0
  1 17  1  0
  1 18  1  0
  1 19  1  0
  4 20  1  0
  6 21  1  0
  6 22  1  0
 10 23  1  0
 11 24  1  0
 13 25  1  0
 16 26  1  0
M  END
$$$$

     RDKit          3D

 26 26  0  0  0  0  0  0  0  0999 V2000
   -4.0918   -0.6729   -0.9814 C   0  0  0  0  0  0  0  0  0  0  0  0
   -2.6350   -0.4697   -0.7051 C   0  0  0  0  0  0  0  0  0  0  0  0
   -1.7096   -1.0250   -1.4895 N   0  0  0  0  0  0  0  0  0  0  0  0
   -0.3905   -0.8674   -1.2765 C   0  0  0  0  0  0  0  0  0  0  0  0
    0.0484   -0.1095   -0.2160 C   0  0  0  0  0  0  0  0  0  0  0  0
    1.4959    0.0923    0.0584 C   0  0  0  0  0  0  0  0  0  0  0  0
    2.2955   -0.5639   -0.8669 O   0  0  0  0  0  0  0  0  0  0  0  0
    3.9081   -0.2652   -0.4575 P   0  0  0  0  0  5  0  0  0  0  0  0
    4.7761   -0.1662   -1.6975 O   0  0  0  0  0  0  0  0  0  0  0  0
    4.4123   -1.5397    0.5381 O   0  0  0  0  0  0  0  0  0  0  0  0
    3.9956    1.1515    0.4605 O   0  0  0  0  0  0  0  0  0  0  0  0
   -0.8766    0.4996    0.6439 C   0  0  0  0  0  0  0  0  0  0  0  0
   -0.4237    1.2981    1.7611 C   0  0  0  0  0  0  0  0  0  0  0  0
   -1.2061    1.8531    2.5442 O   0  0  0  0  0  0  0  0  0  0  0  0
   -2.2098    0.3105    0.3866 C   0  0  0  0  0  0  0  0  0  0  0  0
   -3.2289    0.8389    1.1338 O   0  0  0  0  0  0  0  0  0  0  0  0
   -4.5555    0.1948   -1.4622 H   0  0  0  0  0  0  0  0  0  0  0  0
   -4.6126   -0.8340   -0.0124 H   0  0  0  0  0  0  0  0  0  0  0  0
   -4.1989   -1.6088   -1.5656 H   0  0  0  0  0  0  0  0  0  0  0  0
    0.3522   -1.3162   -1.9104 H   0  0  0  0  0  0  0  0  0  0  0  0
    1.7555    1.1819    0.1049 H   0  0  0  0  0  0  0  0  0  0  0  0
    1.7748   -0.3155    1.0662 H   0  0  0  0  0  0  0  0  0  0  0  0
    4.1293   -2.4136    0.1986 H   0  0  0  0  0  0  0  0  0  0  0  0
    3.8170    1.8969   -0.1439 H   0  0  0  0  0  0  0  0  0  0  0  0
    0.6441    1.4518    1.9703 H   0  0  0  0  0  0  0  0  0  0  0  0
   -3.2658    1.3981    1.9184 H   0  0  0  0  0  0  0  0  0  0  0  0
  1  2  1  0
  2  3  2  0
  3  4  1  0
  4  5  2  0
  5  6  1  0
  6  7  1  0
  7  8  1  0
  8  9  2  0
  8 10  1  0
  8 11  1  0
  5 12  1  0
 12 13  1  0
 13 14  2  0
 12 15  2  0
 15 16  1  0
 15  2  1  0
  1 17  1  0
  1 18  1  0
  1 19  1  0
  4 20  1  0
  6 21  1  0
  6 22  1  0
 10 23  1  0
 11 24  1  0
 13 25  1  0
 16 26  1  0
M  END
$$$$

     RDKit          3D

 26 26  0  0  0  0  0  0  0  0999 V2000
   -4.0313    1.5002    0.0348 C   0  0  0  0  0  0  0  0  0  0  0  0
   -2.6951    0.9330   -0.1111 C   0  0  0  0  0  0  0  0  0  0  0  0
   -1.8489    1.5348   -0.9782 N   0  0  0  0  0  0  0  0  0  0  0  0
   -0.5990    1.0836   -1.1917 C   0  0  0  0  0  0  0  0  0  0  0  0
   -0.1452   -0.0230   -0.5311 C   0  0  0  0  0  0  0  0  0  0  0  0
    1.2220   -0.5626   -0.7929 C   0  0  0  0  0  0  0  0  0  0  0  0
    2.1713    0.4613   -0.4324 O   0  0  0  0  0  0  0  0  0  0  0  0
    3.7637   -0.1384   -0.4768 P   0  0  0  0  0  5  0  0  0  0  0  0
    4.0664   -0.8538   -1.7647 O   0  0  0  0  0  0  0  0  0  0  0  0
    4.9108    1.1095   -0.2511 O   0  0  0  0  0  0  0  0  0  0  0  0
    3.9623   -1.2901    0.8066 O   0  0  0  0  0  0  0  0  0  0  0  0
   -0.9608   -0.6667    0.3446 C   0  0  0  0  0  0  0  0  0  0  0  0
   -0.5305   -1.6814    1.2274 C   0  0  0  0  0  0  0  0  0  0  0  0
    0.6679   -2.2273    0.8475 O   0  0  0  0  0  0  0  0  0  0  0  0
   -2.2246   -0.1620    0.5364 C   0  0  0  0  0  0  0  0  0  0  0  0
   -3.1387   -0.7823    1.4196 O   0  0  0  0  0  0  0  0  0  0  0  0
   -4.7624    0.7302    0.4062 H   0  0  0  0  0  0  0  0  0  0  0  0
   -4.4553    1.9115   -0.8718 H   0  0  0  0  0  0  0  0  0  0  0  0
   -4.0052    2.3671    0.7668 H   0  0  0  0  0  0  0  0  0  0  0  0
    0.0540    1.5815   -1.8559 H   0  0  0  0  0  0  0  0  0  0  0  0
    1.4920   -1.5441   -0.9557 H   0  0  0  0  0  0  0  0  0  0  0  0
    1.3044   -0.2666   -2.0274 H   0  0  0  0  0  0  0  0  0  0  0  0
    4.5004    2.0415   -0.4285 H   0  0  0  0  0  0  0  0  0  0  0  0
    4.8811   -1.2989    1.1108 H   0  0  0  0  0  0  0  0  0  0  0  0
   -0.8194   -2.1448    2.0680 H   0  0  0  0  0  0  0  0  0  0  0  0
   -2.7799   -1.6123    1.9072 H   0  0  0  0  0  0  0  0  0  0  0  0
  1  2  1  0
  2  3  2  0
  3  4  1  0
  4  5  2  0
  5  6  1  0
  6  7  1  0
  7  8  1  0
  8  9  2  0
  8 10  1  0
  8 11  1  0
  5 12  1  0
 12 13  1  0
 13 14  2  0
 12 15  2  0
 15 16  1  0
 15  2  1  0
  1 17  1  0
  1 18  1  0
  1 19  1  0
  4 20  1  0
  6 21  1  0
  6 22  1  0
 10 23  1  0
 11 24  1  0
 13 25  1  0
 16 26  1  0
M  END
$$$$

     RDKit          3D

 26 26  0  0  0  0  0  0  0  0999 V2000
   -4.0247    1.0505    0.4242 C   0  0  0  0  0  0  0  0  0  0  0  0
   -2.5868    0.6900    0.2865 C   0  0  0  0  0  0  0  0  0  0  0  0
   -1.6270    1.5765    0.6544 N   0  0  0  0  0  0  0  0  0  0  0  0
   -0.3287    1.2547    0.5317 C   0  0  0  0  0  0  0  0  0  0  0  0
    0.0616    0.0047    0.0244 C   0  0  0  0  0  0  0  0  0  0  0  0
    1.5177   -0.3165   -0.0887 C   0  0  0  0  0  0  0  0  0  0  0  0
    2.2499    0.7823    0.3533 O   0  0  0  0  0  0  0  0  0  0  0  0
    3.8973    0.5363    0.2717 P   0  0  0  0  0  5  0  0  0  0  0  0
    4.5545    1.0155    1.5446 O   0  0  0  0  0  0  0  0  0  0  0  0
    4.5316    1.4788   -0.9988 O   0  0  0  0  0  0  0  0  0  0  0  0
    4.2493   -1.0953   -0.0165 O   0  0  0  0  0  0  0  0  0  0  0  0
   -0.9279   -0.8809   -0.3437 C   0  0  0  0  0  0  0  0  0  0  0  0
   -0.5947   -2.1797   -0.8763 C   0  0  0  0  0  0  0  0  0  0  0  0
    0.5958   -2.5164   -1.0077 O   0  0  0  0  0  0  0  0  0  0  0  0
   -2.2616   -0.5460   -0.2157 C   0  0  0  0  0  0  0  0  0  0  0  0
   -3.2871   -1.4063   -0.5733 O   0  0  0  0  0  0  0  0  0  0  0  0
   -4.0913    2.1246    0.6769 H   0  0  0  0  0  0  0  0  0  0  0  0
   -4.5527    0.8726   -0.5516 H   0  0  0  0  0  0  0  0  0  0  0  0
   -4.4938    0.4544    1.2482 H   0  0  0  0  0  0  0  0  0  0  0  0
    0.4136    1.9825    0.8335 H   0  0  0  0  0  0  0  0  0  0  0  0
    1.7469   -1.2297    0.4989 H   0  0  0  0  0  0  0  0  0  0  0  0
    1.7520   -0.5094   -1.1509 H   0  0  0  0  0  0  0  0  0  0  0  0
    4.4210    2.4279   -0.7089 H   0  0  0  0  0  0  0  0  0  0  0  0
    4.4124   -1.5725    0.8151 H   0  0  0  0  0  0  0  0  0  0  0  0
   -1.3750   -2.8557   -1.1592 H   0  0  0  0  0  0  0  0  0  0  0  0
   -4.2521   -1.1429   -0.4720 H   0  0  0  0  0  0  0  0  0  0  0  0
  1  2  1  0
  2  3  2  0
  3  4  1  0
  4  5  2  0
  5  6  1  0
  6  7  1  0
  7  8  1  0
  8  9  2  0
  8 10  1  0
  8 11  1  0
  5 12  1  0
 12 13  1  0
 13 14  2  0
 12 15  2  0
 15 16  1  0
 15  2  1  0
  1 17  1  0
  1 18  1  0
  1 19  1  0
  4 20  1  0
  6 21  1  0
  6 22  1  0
 10 23  1  0
 11 24  1  0
 13 25  1  0
 16 26  1  0
M  END
$$$$

     RDKit          3D

 26 26  0  0  0  0  0  0  0  0999 V2000
   -3.0695    2.0412    0.1380 C   0  0  0  0  0  0  0  0  0  0  0  0
   -1.9167    1.1147   -0.0649 C   0  0  0  0  0  0  0  0  0  0  0  0
   -0.8262    1.5862   -0.6764 N   0  0  0  0  0  0  0  0  0  0  0  0
    0.2209    0.7650   -0.8677 C   0  0  0  0  0  0  0  0  0  0  0  0
    0.2214   -0.5557   -0.4562 C   0  0  0  0  0  0  0  0  0  0  0  0
    1.3574   -1.4468   -0.7041 C   0  0  0  0  0  0  0  0  0  0  0  0
    2.4789   -0.9059   -1.2720 O   0  0  0  0  0  0  0  0  0  0  0  0
    3.2862    0.2370   -0.3661 P   0  0  0  0  0  5  0  0  0  0  0  0
    4.6107   -0.3404    0.1802 O   0  0  0  0  0  0  0  0  0  0  0  0
    2.3320    0.6900    0.9448 O   0  0  0  0  0  0  0  0  0  0  0  0
    3.7484    1.5752   -1.2889 O   0  0  0  0  0  0  0  0  0  0  0  0
   -0.9147   -1.0545    0.1825 C   0  0  0  0  0  0  0  0  0  0  0  0
   -0.9773   -2.4139    0.6299 C   0  0  0  0  0  0  0  0  0  0  0  0
   -0.0683   -3.2572    0.5044 O   0  0  0  0  0  0  0  0  0  0  0  0
   -1.9930   -0.1970    0.3751 C   0  0  0  0  0  0  0  0  0  0  0  0
   -3.1537   -0.5834    0.9895 O   0  0  0  0  0  0  0  0  0  0  0  0
   -2.9451    2.9520   -0.4745 H   0  0  0  0  0  0  0  0  0  0  0  0
   -4.0230    1.5718   -0.2027 H   0  0  0  0  0  0  0  0  0  0  0  0
   -3.1628    2.3655    1.1934 H   0  0  0  0  0  0  0  0  0  0  0  0
    1.0905    1.1752   -1.3961 H   0  0  0  0  0  0  0  0  0  0  0  0
    1.0248   -2.3573   -1.2888 H   0  0  0  0  0  0  0  0  0  0  0  0
    1.7127   -1.8665    0.2916 H   0  0  0  0  0  0  0  0  0  0  0  0
    2.8349    0.7478    1.7942 H   0  0  0  0  0  0  0  0  0  0  0  0
    3.4261    2.3823   -0.8176 H   0  0  0  0  0  0  0  0  0  0  0  0
   -1.8876   -2.7662    1.1259 H   0  0  0  0  0  0  0  0  0  0  0  0
   -3.4070   -1.4592    1.3693 H   0  0  0  0  0  0  0  0  0  0  0  0
  1  2  1  0
  2  3  2  0
  3  4  1  0
  4  5  2  0
  5  6  1  0
  6  7  1  0
  7  8  1  0
  8  9  2  0
  8 10  1  0
  8 11  1  0
  5 12  1  0
 12 13  1  0
 13 14  2  0
 12 15  2  0
 15 16  1  0
 15  2  1  0
  1 17  1  0
  1 18  1  0
  1 19  1  0
  4 20  1  0
  6 21  1  0
  6 22  1  0
 10 23  1  0
 11 24  1  0
 13 25  1  0
 16 26  1  0
M  END
$$$$

     RDKit          3D

 26 26  0  0  0  0  0  0  0  0999 V2000
   -3.7770   -1.7176   -0.6045 C   0  0  0  0  0  0  0  0  0  0  0  0
   -2.3782   -1.1383   -0.3273 C   0  0  0  0  0  0  0  0  0  0  0  0
   -1.3066   -1.9022   -0.3079 N   0  0  0  0  0  0  0  0  0  0  0  0
   -0.0805   -1.3957    0.0124 C   0  0  0  0  0  0  0  0  0  0  0  0
    0.0824   -0.0963    0.3243 C   0  0  0  0  0  0  0  0  0  0  0  0
    1.3230    0.4022    1.0371 C   0  0  0  0  0  0  0  0  0  0  0  0
    2.4380    0.6595    0.5291 O   0  0  0  0  0  0  0  0  0  0  0  0
    3.5591   -0.0552   -0.2536 P   0  0  0  0  0  5  0  0  0  0  0  0
    3.5411   -1.5147   -0.4784 O   0  0  0  0  0  0  0  0  0  0  0  0
    3.6625    0.7779   -1.8073 O   0  0  0  0  0  0  0  0  0  0  0  0
    5.1257    0.2782    0.4081 O   0  0  0  0  0  0  0  0  0  0  0  0
   -1.0472    0.6999    0.2957 C   0  0  0  0  0  0  0  0  0  0  0  0
   -0.8214    2.1261    0.5404 C   0  0  0  0  0  0  0  0  0  0  0  0
    0.2575    2.6128    0.8202 O   0  0  0  0  0  0  0  0  0  0  0  0
   -2.2698    0.1599   -0.0274 C   0  0  0  0  0  0  0  0  0  0  0  0
   -3.3692    0.9829   -0.0367 O   0  0  0  0  0  0  0  0  0  0  0  0
   -4.4504   -0.8633   -0.6647 H   0  0  0  0  0  0  0  0  0  0  0  0
   -4.0349   -2.2917    0.3749 H   0  0  0  0  0  0  0  0  0  0  0  0
   -3.8353   -2.4470   -1.4034 H   0  0  0  0  0  0  0  0  0  0  0  0
    0.7599   -2.1169   -0.0099 H   0  0  0  0  0  0  0  0  0  0  0  0
    0.9479    1.0312    1.9584 H   0  0  0  0  0  0  0  0  0  0  0  0
    1.4782   -0.5672    1.8182 H   0  0  0  0  0  0  0  0  0  0  0  0
    3.5461    1.7375   -1.6065 H   0  0  0  0  0  0  0  0  0  0  0  0
    5.7884   -0.0191   -0.2543 H   0  0  0  0  0  0  0  0  0  0  0  0
   -1.6855    2.7613    0.4966 H   0  0  0  0  0  0  0  0  0  0  0  0
   -3.4539    1.8956    0.1542 H   0  0  0  0  0  0  0  0  0  0  0  0
  1  2  1  0
  2  3  2  0
  3  4  1  0
  4  5  2  0
  5  6  1  0
  6  7  1  0
  7  8  1  0
  8  9  2  0
  8 10  1  0
  8 11  1  0
  5 12  1  0
 12 13  1  0
 13 14  2  0
 12 15  2  0
 15 16  1  0
 15  2  1  0
  1 17  1  0
  1 18  1  0
  1 19  1  0
  4 20  1  0
  6 21  1  0
  6 22  1  0
 10 23  1  0
 11 24  1  0
 13 25  1  0
 16 26  1  0
M  END
$$$$

     RDKit          3D

 26 26  0  0  0  0  0  0  0  0999 V2000
    4.2242   -0.4582    0.4500 C   0  0  0  0  0  0  0  0  0  0  0  0
    2.7486   -0.3813    0.3603 C   0  0  0  0  0  0  0  0  0  0  0  0
    1.9084   -0.9100    1.2467 N   0  0  0  0  0  0  0  0  0  0  0  0
    0.5774   -0.8111    1.1173 C   0  0  0  0  0  0  0  0  0  0  0  0
   -0.0154   -0.1594    0.0649 C   0  0  0  0  0  0  0  0  0  0  0  0
   -1.4823   -0.0430   -0.0897 C   0  0  0  0  0  0  0  0  0  0  0  0
   -2.0780   -0.6883    0.9815 O   0  0  0  0  0  0  0  0  0  0  0  0
   -3.7625   -0.6146    0.9023 P   0  0  0  0  0  5  0  0  0  0  0  0
   -4.3148   -1.4583    2.0438 O   0  0  0  0  0  0  0  0  0  0  0  0
   -4.3278    0.9582    1.1455 O   0  0  0  0  0  0  0  0  0  0  0  0
   -4.3101   -1.2384   -0.5693 O   0  0  0  0  0  0  0  0  0  0  0  0
    0.8335    0.4142   -0.8951 C   0  0  0  0  0  0  0  0  0  0  0  0
    0.1834    1.0883   -1.9831 C   0  0  0  0  0  0  0  0  0  0  0  0
    0.7864    1.6433   -2.9069 O   0  0  0  0  0  0  0  0  0  0  0  0
    2.1882    0.2980   -0.7381 C   0  0  0  0  0  0  0  0  0  0  0  0
    3.0627    0.8337   -1.6368 O   0  0  0  0  0  0  0  0  0  0  0  0
    4.5663    0.4331    1.0369 H   0  0  0  0  0  0  0  0  0  0  0  0
    4.5839   -1.3409    1.0104 H   0  0  0  0  0  0  0  0  0  0  0  0
    4.6742   -0.3975   -0.5683 H   0  0  0  0  0  0  0  0  0  0  0  0
   -0.1032   -1.2529    1.8574 H   0  0  0  0  0  0  0  0  0  0  0  0
   -1.8125    1.0158   -0.1862 H   0  0  0  0  0  0  0  0  0  0  0  0
   -1.8078   -0.5681   -1.0132 H   0  0  0  0  0  0  0  0  0  0  0  0
   -3.6451    1.6417    0.9500 H   0  0  0  0  0  0  0  0  0  0  0  0
   -4.5927   -0.4815   -1.1454 H   0  0  0  0  0  0  0  0  0  0  0  0
   -0.9137    1.1498   -2.0567 H   0  0  0  0  0  0  0  0  0  0  0  0
    2.8288    1.3274   -2.4393 H   0  0  0  0  0  0  0  0  0  0  0  0
  1  2  1  0
  2  3  2  0
  3  4  1  0
  4  5  2  0
  5  6  1  0
  6  7  1  0
  7  8  1  0
  8  9  2  0
  8 10  1  0
  8 11  1  0
  5 12  1  0
 12 13  1  0
 13 14  2  0
 12 15  2  0
 15 16  1  0
 15  2  1  0
  1 17  1  0
  1 18  1  0
  1 19  1  0
  4 20  1  0
  6 21  1  0
  6 22  1  0
 10 23  1  0
 11 24  1  0
 13 25  1  0
 16 26  1  0
M  END
$$$$

     RDKit          3D

 26 26  0  0  0  0  0  0  0  0999 V2000
   -3.4792    1.5464    0.0388 C   0  0  0  0  0  0  0  0  0  0  0  0
   -2.1676    0.8507   -0.1184 C   0  0  0  0  0  0  0  0  0  0  0  0
   -1.0836    1.4963   -0.5352 N   0  0  0  0  0  0  0  0  0  0  0  0
    0.1273    0.8783   -0.6857 C   0  0  0  0  0  0  0  0  0  0  0  0
    0.3207   -0.4609   -0.4168 C   0  0  0  0  0  0  0  0  0  0  0  0
    1.6221   -1.1332   -0.5812 C   0  0  0  0  0  0  0  0  0  0  0  0
    2.6775   -0.3941   -0.9814 O   0  0  0  0  0  0  0  0  0  0  0  0
    3.2359    0.8179   -0.0116 P   0  0  0  0  0  5  0  0  0  0  0  0
    3.6189    2.0189   -0.8623 O   0  0  0  0  0  0  0  0  0  0  0  0
    2.2932    1.2073    1.3089 O   0  0  0  0  0  0  0  0  0  0  0  0
    4.7338    0.2803    0.6458 O   0  0  0  0  0  0  0  0  0  0  0  0
   -0.8112   -1.1289    0.0152 C   0  0  0  0  0  0  0  0  0  0  0  0
   -0.7441   -2.5363    0.3087 C   0  0  0  0  0  0  0  0  0  0  0  0
    0.2763   -3.2382    0.2159 O   0  0  0  0  0  0  0  0  0  0  0  0
   -2.0386   -0.4819    0.1629 C   0  0  0  0  0  0  0  0  0  0  0  0
   -3.1268   -1.2161    0.6010 O   0  0  0  0  0  0  0  0  0  0  0  0
   -3.4669    2.5234   -0.5179 H   0  0  0  0  0  0  0  0  0  0  0  0
   -4.2750    0.8905   -0.3719 H   0  0  0  0  0  0  0  0  0  0  0  0
   -3.7146    1.7834    1.0885 H   0  0  0  0  0  0  0  0  0  0  0  0
    0.9734    1.4460   -1.0499 H   0  0  0  0  0  0  0  0  0  0  0  0
    1.8125   -1.6523    0.4021 H   0  0  0  0  0  0  0  0  0  0  0  0
    1.4757   -1.9569   -1.3172 H   0  0  0  0  0  0  0  0  0  0  0  0
    2.0263    2.1356    1.3810 H   0  0  0  0  0  0  0  0  0  0  0  0
    5.3995    0.2195   -0.0962 H   0  0  0  0  0  0  0  0  0  0  0  0
   -1.6417   -3.0865    0.6473 H   0  0  0  0  0  0  0  0  0  0  0  0
   -4.0440   -0.8093    0.7297 H   0  0  0  0  0  0  0  0  0  0  0  0
  1  2  1  0
  2  3  2  0
  3  4  1  0
  4  5  2  0
  5  6  1  0
  6  7  1  0
  7  8  1  0
  8  9  2  0
  8 10  1  0
  8 11  1  0
  5 12  1  0
 12 13  1  0
 13 14  2  0
 12 15  2  0
 15 16  1  0
 15  2  1  0
  1 17  1  0
  1 18  1  0
  1 19  1  0
  4 20  1  0
  6 21  1  0
  6 22  1  0
 10 23  1  0
 11 24  1  0
 13 25  1  0
 16 26  1  0
M  END
$$$$

     RDKit          3D

 26 26  0  0  0  0  0  0  0  0999 V2000
   -4.2821   -1.0338    0.1572 C   0  0  0  0  0  0  0  0  0  0  0  0
   -2.8371   -0.7607   -0.0115 C   0  0  0  0  0  0  0  0  0  0  0  0
   -1.9683   -1.8218   -0.0793 N   0  0  0  0  0  0  0  0  0  0  0  0
   -0.6152   -1.6152   -0.2062 C   0  0  0  0  0  0  0  0  0  0  0  0
   -0.0792   -0.3673   -0.2613 C   0  0  0  0  0  0  0  0  0  0  0  0
    1.3482   -0.1346    0.0123 C   0  0  0  0  0  0  0  0  0  0  0  0
    2.3346   -0.2934   -0.9268 O   0  0  0  0  0  0  0  0  0  0  0  0
    3.8217   -0.0687   -0.2009 P   0  0  0  0  0  5  0  0  0  0  0  0
    4.0228   -1.2202    0.8147 O   0  0  0  0  0  0  0  0  0  0  0  0
    4.1212    1.3292    0.6112 O   0  0  0  0  0  0  0  0  0  0  0  0
    5.0039   -0.2785   -1.3817 O   0  0  0  0  0  0  0  0  0  0  0  0
   -0.9935    0.6894   -0.1778 C   0  0  0  0  0  0  0  0  0  0  0  0
   -0.4355    2.0076   -0.2148 C   0  0  0  0  0  0  0  0  0  0  0  0
   -1.1650    3.0530    0.1379 O   0  0  0  0  0  0  0  0  0  0  0  0
   -2.3207    0.4595   -0.0623 C   0  0  0  0  0  0  0  0  0  0  0  0
   -3.2596    1.5211    0.0120 O   0  0  0  0  0  0  0  0  0  0  0  0
   -4.8582   -0.2851   -0.4775 H   0  0  0  0  0  0  0  0  0  0  0  0
   -4.5326   -2.0285   -0.3085 H   0  0  0  0  0  0  0  0  0  0  0  0
   -4.6067   -1.0621    1.1965 H   0  0  0  0  0  0  0  0  0  0  0  0
    0.0520   -2.5414   -0.3457 H   0  0  0  0  0  0  0  0  0  0  0  0
    1.5355    0.4723    0.9803 H   0  0  0  0  0  0  0  0  0  0  0  0
    1.6244   -1.2379    0.6075 H   0  0  0  0  0  0  0  0  0  0  0  0
    4.7733    1.1850    1.3654 H   0  0  0  0  0  0  0  0  0  0  0  0
    5.8309   -0.6351   -0.9027 H   0  0  0  0  0  0  0  0  0  0  0  0
    0.6144    2.2073   -0.5540 H   0  0  0  0  0  0  0  0  0  0  0  0
   -3.1293    2.4600   -0.0701 H   0  0  0  0  0  0  0  0  0  0  0  0
  1  2  1  0
  2  3  2  0
  3  4  1  0
  4  5  2  0
  5  6  1  0
  6  7  1  0
  7  8  1  0
  8  9  2  0
  8 10  1  0
  8 11  1  0
  5 12  1  0
 12 13  1  0
 13 14  2  0
 12 15  2  0
 15 16  1  0
 15  2  1  0
  1 17  1  0
  1 18  1  0
  1 19  1  0
  4 20  1  0
  6 21  1  0
  6 22  1  0
 10 23  1  0
 11 24  1  0
 13 25  1  0
 16 26  1  0
M  END
$$$$

     RDKit          3D

 26 26  0  0  0  0  0  0  0  0999 V2000
   -3.0963    1.8973    0.6952 C   0  0  0  0  0  0  0  0  0  0  0  0
   -1.9257    1.1005    0.2458 C   0  0  0  0  0  0  0  0  0  0  0  0
   -0.8088    1.6835   -0.1928 N   0  0  0  0  0  0  0  0  0  0  0  0
    0.2580    0.9400   -0.6021 C   0  0  0  0  0  0  0  0  0  0  0  0
    0.2631   -0.4238   -0.5926 C   0  0  0  0  0  0  0  0  0  0  0  0
    1.3931   -1.1811   -1.0782 C   0  0  0  0  0  0  0  0  0  0  0  0
    2.4827   -0.4184   -1.4073 O   0  0  0  0  0  0  0  0  0  0  0  0
    3.2209    0.3814   -0.1415 P   0  0  0  0  0  5  0  0  0  0  0  0
    4.5109   -0.3878    0.1657 O   0  0  0  0  0  0  0  0  0  0  0  0
    3.7300    1.9064   -0.6596 O   0  0  0  0  0  0  0  0  0  0  0  0
    2.2836    0.5596    1.2279 O   0  0  0  0  0  0  0  0  0  0  0  0
   -0.9019   -1.0569   -0.1358 C   0  0  0  0  0  0  0  0  0  0  0  0
   -0.8906   -2.4932   -0.1318 C   0  0  0  0  0  0  0  0  0  0  0  0
   -1.8486   -3.2135    0.2439 O   0  0  0  0  0  0  0  0  0  0  0  0
   -1.9527   -0.2968    0.2666 C   0  0  0  0  0  0  0  0  0  0  0  0
   -3.1289   -0.8375    0.7273 O   0  0  0  0  0  0  0  0  0  0  0  0
   -3.9941    1.2430    0.7921 H   0  0  0  0  0  0  0  0  0  0  0  0
   -3.2662    2.7403    0.0101 H   0  0  0  0  0  0  0  0  0  0  0  0
   -2.8090    2.3526    1.6805 H   0  0  0  0  0  0  0  0  0  0  0  0
    1.0801    1.5613   -0.9597 H   0  0  0  0  0  0  0  0  0  0  0  0
    1.0730   -1.6779   -2.0437 H   0  0  0  0  0  0  0  0  0  0  0  0
    1.6966   -2.0340   -0.4233 H   0  0  0  0  0  0  0  0  0  0  0  0
    3.5041    2.6042    0.0098 H   0  0  0  0  0  0  0  0  0  0  0  0
    2.5728   -0.0981    1.9203 H   0  0  0  0  0  0  0  0  0  0  0  0
   -0.0318   -3.0832   -0.4615 H   0  0  0  0  0  0  0  0  0  0  0  0
   -3.4143   -1.7679    0.8449 H   0  0  0  0  0  0  0  0  0  0  0  0
  1  2  1  0
  2  3  2  0
  3  4  1  0
  4  5  2  0
  5  6  1  0
  6  7  1  0
  7  8  1  0
  8  9  2  0
  8 10  1  0
  8 11  1  0
  5 12  1  0
 12 13  1  0
 13 14  2  0
 12 15  2  0
 15 16  1  0
 15  2  1  0
  1 17  1  0
  1 18  1  0
  1 19  1  0
  4 20  1  0
  6 21  1  0
  6 22  1  0
 10 23  1  0
 11 24  1  0
 13 25  1  0
 16 26  1  0
M  END
$$$$

     RDKit          3D

 26 26  0  0  0  0  0  0  0  0999 V2000
   -4.3054    0.0538   -0.0698 C   0  0  0  0  0  0  0  0  0  0  0  0
   -2.8212    0.1218   -0.1137 C   0  0  0  0  0  0  0  0  0  0  0  0
   -2.2697    0.6960    1.0572 N   0  0  0  0  0  0  0  0  0  0  0  0
   -0.9417    0.8089    1.2213 C   0  0  0  0  0  0  0  0  0  0  0  0
   -0.0615    0.3742    0.2262 C   0  0  0  0  0  0  0  0  0  0  0  0
    1.3553    0.1568    0.5008 C   0  0  0  0  0  0  0  0  0  0  0  0
    2.1869    1.2436    0.5080 O   0  0  0  0  0  0  0  0  0  0  0  0
    3.7884    0.7644    0.7740 P   0  0  0  0  0  5  0  0  0  0  0  0
    4.5261    1.8895    1.4265 O   0  0  0  0  0  0  0  0  0  0  0  0
    4.5429    0.2429   -0.6693 O   0  0  0  0  0  0  0  0  0  0  0  0
    3.8990   -0.5356    1.8903 O   0  0  0  0  0  0  0  0  0  0  0  0
   -0.6412   -0.2005   -0.9285 C   0  0  0  0  0  0  0  0  0  0  0  0
    0.2120   -0.6144   -2.0327 C   0  0  0  0  0  0  0  0  0  0  0  0
    1.4699   -0.4988   -1.9295 O   0  0  0  0  0  0  0  0  0  0  0  0
   -1.9785   -0.2894   -1.0046 C   0  0  0  0  0  0  0  0  0  0  0  0
   -2.5360   -0.9174   -2.1866 O   0  0  0  0  0  0  0  0  0  0  0  0
   -4.6905    1.0018    0.4032 H   0  0  0  0  0  0  0  0  0  0  0  0
   -4.7277   -0.0683   -1.0365 H   0  0  0  0  0  0  0  0  0  0  0  0
   -4.5314   -0.7853    0.6257 H   0  0  0  0  0  0  0  0  0  0  0  0
   -0.5554    1.1852    2.1308 H   0  0  0  0  0  0  0  0  0  0  0  0
    1.3707   -0.0231    1.7257 H   0  0  0  0  0  0  0  0  0  0  0  0
    1.7951   -0.8052    0.2432 H   0  0  0  0  0  0  0  0  0  0  0  0
    5.1409   -0.4953   -0.5009 H   0  0  0  0  0  0  0  0  0  0  0  0
    3.4802   -1.3075    1.4256 H   0  0  0  0  0  0  0  0  0  0  0  0
   -0.1547   -1.0277   -2.9707 H   0  0  0  0  0  0  0  0  0  0  0  0
   -3.5525   -0.9703   -2.1976 H   0  0  0  0  0  0  0  0  0  0  0  0
  1  2  1  0
  2  3  2  0
  3  4  1  0
  4  5  2  0
  5  6  1  0
  6  7  1  0
  7  8  1  0
  8  9  2  0
  8 10  1  0
  8 11  1  0
  5 12  1  0
 12 13  1  0
 13 14  2  0
 12 15  2  0
 15 16  1  0
 15  2  1  0
  1 17  1  0
  1 18  1  0
  1 19  1  0
  4 20  1  0
  6 21  1  0
  6 22  1  0
 10 23  1  0
 11 24  1  0
 13 25  1  0
 16 26  1  0
M  END
$$$$

     RDKit          3D

 26 26  0  0  0  0  0  0  0  0999 V2000
   -4.1074   -1.2721    0.5161 C   0  0  0  0  0  0  0  0  0  0  0  0
   -2.7281   -0.7909    0.6019 C   0  0  0  0  0  0  0  0  0  0  0  0
   -1.7817   -1.3107    1.3206 N   0  0  0  0  0  0  0  0  0  0  0  0
   -0.4738   -0.9552    1.2519 C   0  0  0  0  0  0  0  0  0  0  0  0
   -0.0341   -0.0019    0.3946 C   0  0  0  0  0  0  0  0  0  0  0  0
    1.4026    0.0816   -0.0630 C   0  0  0  0  0  0  0  0  0  0  0  0
    2.3304    0.4908    0.8737 O   0  0  0  0  0  0  0  0  0  0  0  0
    3.9049    0.4154    0.3408 P   0  0  0  0  0  5  0  0  0  0  0  0
    4.8306    0.4899    1.6017 O   0  0  0  0  0  0  0  0  0  0  0  0
    4.3446    1.6297   -0.7509 O   0  0  0  0  0  0  0  0  0  0  0  0
    4.2189   -1.1222   -0.3747 O   0  0  0  0  0  0  0  0  0  0  0  0
   -1.0162    0.6205   -0.4246 C   0  0  0  0  0  0  0  0  0  0  0  0
   -0.5799    1.7783   -1.2190 C   0  0  0  0  0  0  0  0  0  0  0  0
   -1.3949    2.5538   -1.7906 O   0  0  0  0  0  0  0  0  0  0  0  0
   -2.2992    0.2224   -0.2924 C   0  0  0  0  0  0  0  0  0  0  0  0
   -3.3201    0.7931   -1.0393 O   0  0  0  0  0  0  0  0  0  0  0  0
   -4.9083   -0.4780    0.4003 H   0  0  0  0  0  0  0  0  0  0  0  0
   -4.3347   -1.9602    1.3421 H   0  0  0  0  0  0  0  0  0  0  0  0
   -4.2567   -1.9562   -0.4522 H   0  0  0  0  0  0  0  0  0  0  0  0
    0.2942   -1.4172    1.8575 H   0  0  0  0  0  0  0  0  0  0  0  0
    1.6208    0.1688   -1.1247 H   0  0  0  0  0  0  0  0  0  0  0  0
    1.6790   -1.2108    0.0223 H   0  0  0  0  0  0  0  0  0  0  0  0
    5.3723    1.5749   -0.9258 H   0  0  0  0  0  0  0  0  0  0  0  0
    4.0556   -1.8393    0.3365 H   0  0  0  0  0  0  0  0  0  0  0  0
    0.5319    1.9921   -1.3331 H   0  0  0  0  0  0  0  0  0  0  0  0
   -3.3507    1.5035   -1.6969 H   0  0  0  0  0  0  0  0  0  0  0  0
  1  2  1  0
  2  3  2  0
  3  4  1  0
  4  5  2  0
  5  6  1  0
  6  7  1  0
  7  8  1  0
  8  9  2  0
  8 10  1  0
  8 11  1  0
  5 12  1  0
 12 13  1  0
 13 14  2  0
 12 15  2  0
 15 16  1  0
 15  2  1  0
  1 17  1  0
  1 18  1  0
  1 19  1  0
  4 20  1  0
  6 21  1  0
  6 22  1  0
 10 23  1  0
 11 24  1  0
 13 25  1  0
 16 26  1  0
M  END
$$$$

     RDKit          3D

 26 26  0  0  0  0  0  0  0  0999 V2000
   -4.1325    0.7643    0.7231 C   0  0  0  0  0  0  0  0  0  0  0  0
   -2.6769    0.4962    0.4735 C   0  0  0  0  0  0  0  0  0  0  0  0
   -1.7459    1.1796    1.1583 N   0  0  0  0  0  0  0  0  0  0  0  0
   -0.4281    0.9786    0.9735 C   0  0  0  0  0  0  0  0  0  0  0  0
    0.0214    0.0510    0.0619 C   0  0  0  0  0  0  0  0  0  0  0  0
    1.4748   -0.1669   -0.1381 C   0  0  0  0  0  0  0  0  0  0  0  0
    2.1831    0.6813    0.7072 O   0  0  0  0  0  0  0  0  0  0  0  0
    3.8236    0.4297    0.4757 P   0  0  0  0  0  5  0  0  0  0  0  0
    4.0369   -0.8941   -0.2207 O   0  0  0  0  0  0  0  0  0  0  0  0
    4.6115    0.3859    1.9514 O   0  0  0  0  0  0  0  0  0  0  0  0
    4.4579    1.6853   -0.4794 O   0  0  0  0  0  0  0  0  0  0  0  0
   -0.9358   -0.6623   -0.6526 C   0  0  0  0  0  0  0  0  0  0  0  0
   -0.5001   -1.6476   -1.6213 C   0  0  0  0  0  0  0  0  0  0  0  0
    0.7257   -1.8851   -1.8431 O   0  0  0  0  0  0  0  0  0  0  0  0
   -2.2791   -0.4596   -0.4665 C   0  0  0  0  0  0  0  0  0  0  0  0
   -3.3014   -1.1106   -1.1203 O   0  0  0  0  0  0  0  0  0  0  0  0
   -4.7403    0.1726    0.0248 H   0  0  0  0  0  0  0  0  0  0  0  0
   -4.3778    0.4794    1.7498 H   0  0  0  0  0  0  0  0  0  0  0  0
   -4.3372    1.8660    0.6001 H   0  0  0  0  0  0  0  0  0  0  0  0
    0.3092    1.5568    1.5524 H   0  0  0  0  0  0  0  0  0  0  0  0
    1.7851   -1.2079    0.1120 H   0  0  0  0  0  0  0  0  0  0  0  0
    1.7921    0.0747   -1.1899 H   0  0  0  0  0  0  0  0  0  0  0  0
    4.0391   -0.1490    2.5736 H   0  0  0  0  0  0  0  0  0  0  0  0
    4.5093    1.4018   -1.4122 H   0  0  0  0  0  0  0  0  0  0  0  0
   -1.2030   -2.2089   -2.1832 H   0  0  0  0  0  0  0  0  0  0  0  0
   -3.1115   -1.8111   -1.8102 H   0  0  0  0  0  0  0  0  0  0  0  0
  1  2  1  0
  2  3  2  0
  3  4  1  0
  4  5  2  0
  5  6  1  0
  6  7  1  0
  7  8  1  0
  8  9  2  0
  8 10  1  0
  8 11  1  0
  5 12  1  0
 12 13  1  0
 13 14  2  0
 12 15  2  0
 15 16  1  0
 15  2  1  0
  1 17  1  0
  1 18  1  0
  1 19  1  0
  4 20  1  0
  6 21  1  0
  6 22  1  0
 10 23  1  0
 11 24  1  0
 13 25  1  0
 16 26  1  0
M  END
$$$$

     RDKit          3D

 26 26  0  0  0  0  0  0  0  0999 V2000
   -4.1157    1.1395   -0.2955 C   0  0  0  0  0  0  0  0  0  0  0  0
   -2.6696    0.7660   -0.2922 C   0  0  0  0  0  0  0  0  0  0  0  0
   -1.8498    1.1528   -1.3038 N   0  0  0  0  0  0  0  0  0  0  0  0
   -0.5425    0.8231   -1.3143 C   0  0  0  0  0  0  0  0  0  0  0  0
    0.0329    0.0825   -0.3107 C   0  0  0  0  0  0  0  0  0  0  0  0
    1.4859   -0.2832   -0.3235 C   0  0  0  0  0  0  0  0  0  0  0  0
    2.0413    0.2554   -1.4771 O   0  0  0  0  0  0  0  0  0  0  0  0
    3.6908   -0.1316   -1.5394 P   0  0  0  0  0  5  0  0  0  0  0  0
    4.3788    0.5105   -2.6955 O   0  0  0  0  0  0  0  0  0  0  0  0
    4.4614    0.3443   -0.0970 O   0  0  0  0  0  0  0  0  0  0  0  0
    3.8055   -1.8141   -1.6558 O   0  0  0  0  0  0  0  0  0  0  0  0
   -0.7640   -0.3305    0.7354 C   0  0  0  0  0  0  0  0  0  0  0  0
   -0.2135   -1.1115    1.8184 C   0  0  0  0  0  0  0  0  0  0  0  0
   -0.9490   -1.4757    2.7550 O   0  0  0  0  0  0  0  0  0  0  0  0
   -2.1128    0.0248    0.7206 C   0  0  0  0  0  0  0  0  0  0  0  0
   -2.8807   -0.4089    1.7889 O   0  0  0  0  0  0  0  0  0  0  0  0
   -4.3948    1.2534   -1.3843 H   0  0  0  0  0  0  0  0  0  0  0  0
   -4.7519    0.3453    0.1148 H   0  0  0  0  0  0  0  0  0  0  0  0
   -4.2888    2.1344    0.1676 H   0  0  0  0  0  0  0  0  0  0  0  0
    0.0856    1.1490   -2.1394 H   0  0  0  0  0  0  0  0  0  0  0  0
    1.9857    0.0463    0.5958 H   0  0  0  0  0  0  0  0  0  0  0  0
    1.5419   -1.4036   -0.3998 H   0  0  0  0  0  0  0  0  0  0  0  0
    5.3822    0.6921   -0.2901 H   0  0  0  0  0  0  0  0  0  0  0  0
    3.6866   -2.1796   -0.7221 H   0  0  0  0  0  0  0  0  0  0  0  0
    0.8233   -1.3723    1.8090 H   0  0  0  0  0  0  0  0  0  0  0  0
   -3.8689   -0.2082    1.8791 H   0  0  0  0  0  0  0  0  0  0  0  0
  1  2  1  0
  2  3  2  0
  3  4  1  0
  4  5  2  0
  5  6  1  0
  6  7  1  0
  7  8  1  0
  8  9  2  0
  8 10  1  0
  8 11  1  0
  5 12  1  0
 12 13  1  0
 13 14  2  0
 12 15  2  0
 15 16  1  0
 15  2  1  0
  1 17  1  0
  1 18  1  0
  1 19  1  0
  4 20  1  0
  6 21  1  0
  6 22  1  0
 10 23  1  0
 11 24  1  0
 13 25  1  0
 16 26  1  0
M  END
$$$$

     RDKit          3D

 26 26  0  0  0  0  0  0  0  0999 V2000
    3.0174    1.8572   -0.5907 C   0  0  0  0  0  0  0  0  0  0  0  0
    1.8272    0.9888   -0.4004 C   0  0  0  0  0  0  0  0  0  0  0  0
    0.6170    1.2972   -0.8930 N   0  0  0  0  0  0  0  0  0  0  0  0
   -0.4791    0.5092   -0.7242 C   0  0  0  0  0  0  0  0  0  0  0  0
   -0.3668   -0.6648   -0.0173 C   0  0  0  0  0  0  0  0  0  0  0  0
   -1.4477   -1.6267    0.2105 C   0  0  0  0  0  0  0  0  0  0  0  0
   -2.6585   -1.2190   -0.2491 O   0  0  0  0  0  0  0  0  0  0  0  0
   -3.3264    0.1210    0.4944 P   0  0  0  0  0  5  0  0  0  0  0  0
   -4.4316   -0.2936    1.4723 O   0  0  0  0  0  0  0  0  0  0  0  0
   -4.0527    1.0920   -0.6898 O   0  0  0  0  0  0  0  0  0  0  0  0
   -2.1891    0.9901    1.3963 O   0  0  0  0  0  0  0  0  0  0  0  0
    0.8793   -1.0292    0.5161 C   0  0  0  0  0  0  0  0  0  0  0  0
    1.0517   -2.2584    1.2676 C   0  0  0  0  0  0  0  0  0  0  0  0
    2.1768   -2.5635    1.7341 O   0  0  0  0  0  0  0  0  0  0  0  0
    1.9489   -0.1965    0.3140 C   0  0  0  0  0  0  0  0  0  0  0  0
    3.1692   -0.5375    0.8271 O   0  0  0  0  0  0  0  0  0  0  0  0
    3.7732    1.3239   -1.2072 H   0  0  0  0  0  0  0  0  0  0  0  0
    3.4233    2.2211    0.3745 H   0  0  0  0  0  0  0  0  0  0  0  0
    2.6842    2.7218   -1.2090 H   0  0  0  0  0  0  0  0  0  0  0  0
   -1.4278    0.7947   -1.1666 H   0  0  0  0  0  0  0  0  0  0  0  0
   -1.5095   -1.9329    1.2839 H   0  0  0  0  0  0  0  0  0  0  0  0
   -1.1374   -2.5869   -0.3098 H   0  0  0  0  0  0  0  0  0  0  0  0
   -3.5265    1.9215   -0.7751 H   0  0  0  0  0  0  0  0  0  0  0  0
   -2.2216    1.9596    1.1163 H   0  0  0  0  0  0  0  0  0  0  0  0
    0.2406   -2.9548    1.4582 H   0  0  0  0  0  0  0  0  0  0  0  0
    3.9660    0.0660    0.6865 H   0  0  0  0  0  0  0  0  0  0  0  0
  1  2  1  0
  2  3  2  0
  3  4  1  0
  4  5  2  0
  5  6  1  0
  6  7  1  0
  7  8  1  0
  8  9  2  0
  8 10  1  0
  8 11  1  0
  5 12  1  0
 12 13  1  0
 13 14  2  0
 12 15  2  0
 15 16  1  0
 15  2  1  0
  1 17  1  0
  1 18  1  0
  1 19  1  0
  4 20  1  0
  6 21  1  0
  6 22  1  0
 10 23  1  0
 11 24  1  0
 13 25  1  0
 16 26  1  0
M  END
$$$$

     RDKit          3D

 26 26  0  0  0  0  0  0  0  0999 V2000
   -4.0822    1.3604    0.0805 C   0  0  0  0  0  0  0  0  0  0  0  0
   -2.6472    0.9726    0.1782 C   0  0  0  0  0  0  0  0  0  0  0  0
   -1.7329    1.9028    0.5209 N   0  0  0  0  0  0  0  0  0  0  0  0
   -0.4471    1.5634    0.6281 C   0  0  0  0  0  0  0  0  0  0  0  0
   -0.0300    0.2104    0.3598 C   0  0  0  0  0  0  0  0  0  0  0  0
    1.4363   -0.0680    0.4897 C   0  0  0  0  0  0  0  0  0  0  0  0
    2.0605   -0.3926   -0.7332 O   0  0  0  0  0  0  0  0  0  0  0  0
    3.6907   -0.6881   -0.5256 P   0  0  0  0  0  5  0  0  0  0  0  0
    4.0551   -2.1471   -0.7843 O   0  0  0  0  0  0  0  0  0  0  0  0
    4.6012    0.2148   -1.6609 O   0  0  0  0  0  0  0  0  0  0  0  0
    4.2143   -0.1908    1.0028 O   0  0  0  0  0  0  0  0  0  0  0  0
   -0.9806   -0.7122    0.0048 C   0  0  0  0  0  0  0  0  0  0  0  0
   -0.5363   -2.0858   -0.2193 C   0  0  0  0  0  0  0  0  0  0  0  0
    0.6308   -2.4636   -0.1484 O   0  0  0  0  0  0  0  0  0  0  0  0
   -2.2840   -0.3610   -0.0886 C   0  0  0  0  0  0  0  0  0  0  0  0
   -3.1852   -1.3212   -0.4591 O   0  0  0  0  0  0  0  0  0  0  0  0
   -4.0655    2.3160   -0.4632 H   0  0  0  0  0  0  0  0  0  0  0  0
   -4.6291    0.6602   -0.5891 H   0  0  0  0  0  0  0  0  0  0  0  0
   -4.5369    1.4514    1.0756 H   0  0  0  0  0  0  0  0  0  0  0  0
    0.2714    2.3015    0.9289 H   0  0  0  0  0  0  0  0  0  0  0  0
    1.7528   -0.4796    1.3946 H   0  0  0  0  0  0  0  0  0  0  0  0
    1.9033    1.0610    0.5474 H   0  0  0  0  0  0  0  0  0  0  0  0
    4.6456    1.1806   -1.3676 H   0  0  0  0  0  0  0  0  0  0  0  0
    4.1546    0.8204    0.9682 H   0  0  0  0  0  0  0  0  0  0  0  0
   -1.2461   -2.8265   -0.4686 H   0  0  0  0  0  0  0  0  0  0  0  0
   -3.0137   -2.2791   -0.6717 H   0  0  0  0  0  0  0  0  0  0  0  0
  1  2  1  0
  2  3  2  0
  3  4  1  0
  4  5  2  0
  5  6  1  0
  6  7  1  0
  7  8  1  0
  8  9  2  0
  8 10  1  0
  8 11  1  0
  5 12  1  0
 12 13  1  0
 13 14  2  0
 12 15  2  0
 15 16  1  0
 15  2  1  0
  1 17  1  0
  1 18  1  0
  1 19  1  0
  4 20  1  0
  6 21  1  0
  6 22  1  0
 10 23  1  0
 11 24  1  0
 13 25  1  0
 16 26  1  0
M  END
$$$$

     RDKit          3D

 26 26  0  0  0  0  0  0  0  0999 V2000
    3.3279    1.8072   -0.1261 C   0  0  0  0  0  0  0  0  0  0  0  0
    2.1140    0.9668   -0.1698 C   0  0  0  0  0  0  0  0  0  0  0  0
    1.3594    0.9469   -1.2502 N   0  0  0  0  0  0  0  0  0  0  0  0
    0.2442    0.1684   -1.2746 C   0  0  0  0  0  0  0  0  0  0  0  0
   -0.1443   -0.6035   -0.2279 C   0  0  0  0  0  0  0  0  0  0  0  0
   -1.3068   -1.4608   -0.2607 C   0  0  0  0  0  0  0  0  0  0  0  0
   -2.0576   -1.3383   -1.3881 O   0  0  0  0  0  0  0  0  0  0  0  0
   -2.8308    0.1219   -1.6218 P   0  0  0  0  0  5  0  0  0  0  0  0
   -2.8194    0.4536   -3.0951 O   0  0  0  0  0  0  0  0  0  0  0  0
   -2.1901    1.4090   -0.7722 O   0  0  0  0  0  0  0  0  0  0  0  0
   -4.4801   -0.0842   -1.2096 O   0  0  0  0  0  0  0  0  0  0  0  0
    0.6593   -0.5868    0.9280 C   0  0  0  0  0  0  0  0  0  0  0  0
    0.2362   -1.4181    2.0143 C   0  0  0  0  0  0  0  0  0  0  0  0
    0.8645   -1.4960    3.0900 O   0  0  0  0  0  0  0  0  0  0  0  0
    1.7729    0.1925    0.9472 C   0  0  0  0  0  0  0  0  0  0  0  0
    2.6117    0.2764    2.0166 O   0  0  0  0  0  0  0  0  0  0  0  0
    2.9839    2.8639   -0.2052 H   0  0  0  0  0  0  0  0  0  0  0  0
    4.0169    1.6378   -0.9654 H   0  0  0  0  0  0  0  0  0  0  0  0
    3.8866    1.6260    0.8188 H   0  0  0  0  0  0  0  0  0  0  0  0
   -0.3166    0.1654   -2.2054 H   0  0  0  0  0  0  0  0  0  0  0  0
   -1.9483   -1.3782    0.6615 H   0  0  0  0  0  0  0  0  0  0  0  0
   -0.9236   -2.5249   -0.2179 H   0  0  0  0  0  0  0  0  0  0  0  0
   -2.3812    1.3038    0.2111 H   0  0  0  0  0  0  0  0  0  0  0  0
   -4.5508   -0.8226   -0.5483 H   0  0  0  0  0  0  0  0  0  0  0  0
   -0.6591   -2.0407    1.9830 H   0  0  0  0  0  0  0  0  0  0  0  0
    2.5314   -0.1855    2.8678 H   0  0  0  0  0  0  0  0  0  0  0  0
  1  2  1  0
  2  3  2  0
  3  4  1  0
  4  5  2  0
  5  6  1  0
  6  7  1  0
  7  8  1  0
  8  9  2  0
  8 10  1  0
  8 11  1  0
  5 12  1  0
 12 13  1  0
 13 14  2  0
 12 15  2  0
 15 16  1  0
 15  2  1  0
  1 17  1  0
  1 18  1  0
  1 19  1  0
  4 20  1  0
  6 21  1  0
  6 22  1  0
 10 23  1  0
 11 24  1  0
 13 25  1  0
 16 26  1  0
M  END
$$$$

     RDKit          3D

 26 26  0  0  0  0  0  0  0  0999 V2000
   -3.6693    0.7338    1.3054 C   0  0  0  0  0  0  0  0  0  0  0  0
   -2.4030    0.4845    0.5851 C   0  0  0  0  0  0  0  0  0  0  0  0
   -1.4032    1.4588    0.7080 N   0  0  0  0  0  0  0  0  0  0  0  0
   -0.1724    1.2959    0.1029 C   0  0  0  0  0  0  0  0  0  0  0  0
    0.0521    0.1436   -0.5969 C   0  0  0  0  0  0  0  0  0  0  0  0
    1.3885   -0.0065   -1.3275 C   0  0  0  0  0  0  0  0  0  0  0  0
    2.4434    0.1045   -0.6326 O   0  0  0  0  0  0  0  0  0  0  0  0
    3.3900    0.8664    0.3026 P   0  0  0  0  0  5  0  0  0  0  0  0
    3.3525    2.4016    0.4334 O   0  0  0  0  0  0  0  0  0  0  0  0
    3.1846    0.3627    1.9767 O   0  0  0  0  0  0  0  0  0  0  0  0
    5.0673    0.5652   -0.0527 O   0  0  0  0  0  0  0  0  0  0  0  0
   -0.8726   -0.8090   -0.7220 C   0  0  0  0  0  0  0  0  0  0  0  0
   -0.5558   -2.1377   -1.1901 C   0  0  0  0  0  0  0  0  0  0  0  0
   -1.2532   -3.1669   -1.1044 O   0  0  0  0  0  0  0  0  0  0  0  0
   -2.1651   -0.6544   -0.1065 C   0  0  0  0  0  0  0  0  0  0  0  0
   -3.0476   -1.6917   -0.2791 O   0  0  0  0  0  0  0  0  0  0  0  0
   -3.5581    0.4987    2.3773 H   0  0  0  0  0  0  0  0  0  0  0  0
   -4.4961    0.1422    0.8200 H   0  0  0  0  0  0  0  0  0  0  0  0
   -3.8714    1.8616    1.2861 H   0  0  0  0  0  0  0  0  0  0  0  0
    0.5900    2.1433    0.0892 H   0  0  0  0  0  0  0  0  0  0  0  0
    1.2928   -0.8417   -2.0186 H   0  0  0  0  0  0  0  0  0  0  0  0
    1.3474    0.9464   -2.1142 H   0  0  0  0  0  0  0  0  0  0  0  0
    3.8212   -0.3325    2.2024 H   0  0  0  0  0  0  0  0  0  0  0  0
    5.0948   -0.3977   -0.4656 H   0  0  0  0  0  0  0  0  0  0  0  0
    0.3940   -2.2154   -1.6788 H   0  0  0  0  0  0  0  0  0  0  0  0
   -3.9508   -1.7558    0.1001 H   0  0  0  0  0  0  0  0  0  0  0  0
  1  2  1  0
  2  3  2  0
  3  4  1  0
  4  5  2  0
  5  6  1  0
  6  7  1  0
  7  8  1  0
  8  9  2  0
  8 10  1  0
  8 11  1  0
  5 12  1  0
 12 13  1  0
 13 14  2  0
 12 15  2  0
 15 16  1  0
 15  2  1  0
  1 17  1  0
  1 18  1  0
  1 19  1  0
  4 20  1  0
  6 21  1  0
  6 22  1  0
 10 23  1  0
 11 24  1  0
 13 25  1  0
 16 26  1  0
M  END
$$$$

     RDKit          3D

 26 26  0  0  0  0  0  0  0  0999 V2000
    4.1750    0.6555    0.8615 C   0  0  0  0  0  0  0  0  0  0  0  0
    2.7028    0.4759    0.6669 C   0  0  0  0  0  0  0  0  0  0  0  0
    1.8089    1.3722    1.0924 N   0  0  0  0  0  0  0  0  0  0  0  0
    0.4861    1.2154    0.9199 C   0  0  0  0  0  0  0  0  0  0  0  0
   -0.0292    0.1118    0.2889 C   0  0  0  0  0  0  0  0  0  0  0  0
   -1.5002   -0.0501    0.1039 C   0  0  0  0  0  0  0  0  0  0  0  0
   -2.1829    1.0323    0.6441 O   0  0  0  0  0  0  0  0  0  0  0  0
   -3.8362    0.7780    0.3969 P   0  0  0  0  0  5  0  0  0  0  0  0
   -4.3983    0.1009    1.6133 O   0  0  0  0  0  0  0  0  0  0  0  0
   -4.0026   -0.1697   -0.9931 O   0  0  0  0  0  0  0  0  0  0  0  0
   -4.5592    2.3008    0.1482 O   0  0  0  0  0  0  0  0  0  0  0  0
    0.8866   -0.8448   -0.1677 C   0  0  0  0  0  0  0  0  0  0  0  0
    0.3087   -1.9894   -0.8250 C   0  0  0  0  0  0  0  0  0  0  0  0
    0.9236   -2.9670   -1.3129 O   0  0  0  0  0  0  0  0  0  0  0  0
    2.2424   -0.6805    0.0110 C   0  0  0  0  0  0  0  0  0  0  0  0
    3.1898   -1.5820   -0.4138 O   0  0  0  0  0  0  0  0  0  0  0  0
    4.3917    1.2424    1.7742 H   0  0  0  0  0  0  0  0  0  0  0  0
    4.5805    1.2504    0.0101 H   0  0  0  0  0  0  0  0  0  0  0  0
    4.6219   -0.3455    0.8692 H   0  0  0  0  0  0  0  0  0  0  0  0
   -0.2342    1.9676    1.2790 H   0  0  0  0  0  0  0  0  0  0  0  0
   -1.8175   -1.0123    0.5708 H   0  0  0  0  0  0  0  0  0  0  0  0
   -1.7613   -0.1471   -0.9798 H   0  0  0  0  0  0  0  0  0  0  0  0
   -4.1939   -1.1249   -0.7337 H   0  0  0  0  0  0  0  0  0  0  0  0
   -3.9757    2.8899   -0.3825 H   0  0  0  0  0  0  0  0  0  0  0  0
   -0.7898   -2.0653   -0.9388 H   0  0  0  0  0  0  0  0  0  0  0  0
    2.9630   -2.4142   -0.8789 H   0  0  0  0  0  0  0  0  0  0  0  0
  1  2  1  0
  2  3  2  0
  3  4  1  0
  4  5  2  0
  5  6  1  0
  6  7  1  0
  7  8  1  0
  8  9  2  0
  8 10  1  0
  8 11  1  0
  5 12  1  0
 12 13  1  0
 13 14  2  0
 12 15  2  0
 15 16  1  0
 15  2  1  0
  1 17  1  0
  1 18  1  0
  1 19  1  0
  4 20  1  0
  6 21  1  0
  6 22  1  0
 10 23  1  0
 11 24  1  0
 13 25  1  0
 16 26  1  0
M  END
$$$$

     RDKit          3D

 26 26  0  0  0  0  0  0  0  0999 V2000
   -2.3184    2.8397    0.2075 C   0  0  0  0  0  0  0  0  0  0  0  0
   -1.5030    1.6223    0.2902 C   0  0  0  0  0  0  0  0  0  0  0  0
   -0.2693    1.6989    0.7925 N   0  0  0  0  0  0  0  0  0  0  0  0
    0.5076    0.5842    0.8802 C   0  0  0  0  0  0  0  0  0  0  0  0
    0.0284   -0.6227    0.4521 C   0  0  0  0  0  0  0  0  0  0  0  0
    0.8520   -1.8326    0.5680 C   0  0  0  0  0  0  0  0  0  0  0  0
    2.1223   -1.6544    1.0315 O   0  0  0  0  0  0  0  0  0  0  0  0
    3.1555   -0.7722    0.0655 P   0  0  0  0  0  5  0  0  0  0  0  0
    4.1371   -1.7062   -0.6735 O   0  0  0  0  0  0  0  0  0  0  0  0
    4.1297    0.2438    0.9998 O   0  0  0  0  0  0  0  0  0  0  0  0
    2.3894    0.1008   -1.1548 O   0  0  0  0  0  0  0  0  0  0  0  0
   -1.2806   -0.6981   -0.0782 C   0  0  0  0  0  0  0  0  0  0  0  0
   -1.7896   -1.9679   -0.5148 C   0  0  0  0  0  0  0  0  0  0  0  0
   -1.2063   -3.0744   -0.4962 O   0  0  0  0  0  0  0  0  0  0  0  0
   -2.0621    0.4349   -0.1638 C   0  0  0  0  0  0  0  0  0  0  0  0
   -3.3262    0.3789   -0.6737 O   0  0  0  0  0  0  0  0  0  0  0  0
   -1.8600    3.5054   -0.5537 H   0  0  0  0  0  0  0  0  0  0  0  0
   -3.3711    2.6628   -0.0631 H   0  0  0  0  0  0  0  0  0  0  0  0
   -2.2071    3.3860    1.1800 H   0  0  0  0  0  0  0  0  0  0  0  0
    1.4849    0.6868    1.3187 H   0  0  0  0  0  0  0  0  0  0  0  0
    0.3479   -2.6347    1.1621 H   0  0  0  0  0  0  0  0  0  0  0  0
    0.8798   -2.2636   -0.4951 H   0  0  0  0  0  0  0  0  0  0  0  0
    4.9324    0.5498    0.5398 H   0  0  0  0  0  0  0  0  0  0  0  0
    2.9008    0.9074   -1.4047 H   0  0  0  0  0  0  0  0  0  0  0  0
   -2.8121   -2.0206   -0.9220 H   0  0  0  0  0  0  0  0  0  0  0  0
   -3.8620   -0.3542   -1.0295 H   0  0  0  0  0  0  0  0  0  0  0  0
  1  2  1  0
  2  3  2  0
  3  4  1  0
  4  5  2  0
  5  6  1  0
  6  7  1  0
  7  8  1  0
  8  9  2  0
  8 10  1  0
  8 11  1  0
  5 12  1  0
 12 13  1  0
 13 14  2  0
 12 15  2  0
 15 16  1  0
 15  2  1  0
  1 17  1  0
  1 18  1  0
  1 19  1  0
  4 20  1  0
  6 21  1  0
  6 22  1  0
 10 23  1  0
 11 24  1  0
 13 25  1  0
 16 26  1  0
M  END
$$$$

     RDKit          3D

 26 26  0  0  0  0  0  0  0  0999 V2000
   -4.1467    1.2785   -0.3049 C   0  0  0  0  0  0  0  0  0  0  0  0
   -2.6831    1.0535   -0.0818 C   0  0  0  0  0  0  0  0  0  0  0  0
   -1.8250    2.0445    0.2341 N   0  0  0  0  0  0  0  0  0  0  0  0
   -0.5269    1.7882    0.4660 C   0  0  0  0  0  0  0  0  0  0  0  0
    0.0112    0.5038    0.3956 C   0  0  0  0  0  0  0  0  0  0  0  0
    1.3920    0.3072    0.7560 C   0  0  0  0  0  0  0  0  0  0  0  0
    2.2002   -0.4395   -0.1171 O   0  0  0  0  0  0  0  0  0  0  0  0
    3.7453   -0.5074    0.6060 P   0  0  0  0  0  5  0  0  0  0  0  0
    3.8114    0.4613    1.7689 O   0  0  0  0  0  0  0  0  0  0  0  0
    4.1299   -2.0467    1.1735 O   0  0  0  0  0  0  0  0  0  0  0  0
    4.8299    0.0478   -0.5701 O   0  0  0  0  0  0  0  0  0  0  0  0
   -0.8818   -0.5058    0.0728 C   0  0  0  0  0  0  0  0  0  0  0  0
   -0.3469   -1.8411   -0.0371 C   0  0  0  0  0  0  0  0  0  0  0  0
   -1.0818   -2.7896   -0.3780 O   0  0  0  0  0  0  0  0  0  0  0  0
   -2.2278   -0.2354   -0.1691 C   0  0  0  0  0  0  0  0  0  0  0  0
   -3.1011   -1.2153   -0.4931 O   0  0  0  0  0  0  0  0  0  0  0  0
   -4.2181    2.1849   -0.9073 H   0  0  0  0  0  0  0  0  0  0  0  0
   -4.6856    1.3387    0.6790 H   0  0  0  0  0  0  0  0  0  0  0  0
   -4.5879    0.4069   -0.8386 H   0  0  0  0  0  0  0  0  0  0  0  0
    0.1401    2.6092    0.7116 H   0  0  0  0  0  0  0  0  0  0  0  0
    1.8932    1.3791    0.6014 H   0  0  0  0  0  0  0  0  0  0  0  0
    1.6178    0.1139    1.8249 H   0  0  0  0  0  0  0  0  0  0  0  0
    3.9746   -2.7552    0.5034 H   0  0  0  0  0  0  0  0  0  0  0  0
    5.0359    1.0335   -0.4631 H   0  0  0  0  0  0  0  0  0  0  0  0
    0.6605   -2.0603    0.1602 H   0  0  0  0  0  0  0  0  0  0  0  0
   -3.1292   -2.1546   -0.6557 H   0  0  0  0  0  0  0  0  0  0  0  0
  1  2  1  0
  2  3  2  0
  3  4  1  0
  4  5  2  0
  5  6  1  0
  6  7  1  0
  7  8  1  0
  8  9  2  0
  8 10  1  0
  8 11  1  0
  5 12  1  0
 12 13  1  0
 13 14  2  0
 12 15  2  0
 15 16  1  0
 15  2  1  0
  1 17  1  0
  1 18  1  0
  1 19  1  0
  4 20  1  0
  6 21  1  0
  6 22  1  0
 10 23  1  0
 11 24  1  0
 13 25  1  0
 16 26  1  0
M  END
$$$$

     RDKit          3D

 26 26  0  0  0  0  0  0  0  0999 V2000
   -3.7689    2.0608   -0.3166 C   0  0  0  0  0  0  0  0  0  0  0  0
   -2.4297    1.4137   -0.2689 C   0  0  0  0  0  0  0  0  0  0  0  0
   -1.2872    2.0758   -0.2838 N   0  0  0  0  0  0  0  0  0  0  0  0
   -0.0819    1.4822   -0.2403 C   0  0  0  0  0  0  0  0  0  0  0  0
    0.0032    0.1236   -0.1768 C   0  0  0  0  0  0  0  0  0  0  0  0
    1.2957   -0.5865   -0.1268 C   0  0  0  0  0  0  0  0  0  0  0  0
    2.3824    0.2528   -0.1506 O   0  0  0  0  0  0  0  0  0  0  0  0
    3.7956   -0.6524   -0.0900 P   0  0  0  0  0  5  0  0  0  0  0  0
    3.5789   -2.0069    0.5208 O   0  0  0  0  0  0  0  0  0  0  0  0
    4.3749   -0.8312   -1.6714 O   0  0  0  0  0  0  0  0  0  0  0  0
    4.9270    0.2022    0.8553 O   0  0  0  0  0  0  0  0  0  0  0  0
   -1.1635   -0.6523   -0.1570 C   0  0  0  0  0  0  0  0  0  0  0  0
   -1.0626   -2.1047   -0.0890 C   0  0  0  0  0  0  0  0  0  0  0  0
   -2.0505   -2.8482   -0.0682 O   0  0  0  0  0  0  0  0  0  0  0  0
   -2.3676    0.0062   -0.2034 C   0  0  0  0  0  0  0  0  0  0  0  0
   -3.5580   -0.6571   -0.1891 O   0  0  0  0  0  0  0  0  0  0  0  0
   -4.1776    2.0858   -1.3656 H   0  0  0  0  0  0  0  0  0  0  0  0
   -4.4699    1.4702    0.2738 H   0  0  0  0  0  0  0  0  0  0  0  0
   -3.6618    3.1131    0.0013 H   0  0  0  0  0  0  0  0  0  0  0  0
    0.8086    2.1307   -0.2581 H   0  0  0  0  0  0  0  0  0  0  0  0
    1.2771   -1.2172    0.8018 H   0  0  0  0  0  0  0  0  0  0  0  0
    1.3861   -1.2615   -1.0263 H   0  0  0  0  0  0  0  0  0  0  0  0
    5.3220   -0.6387   -1.7531 H   0  0  0  0  0  0  0  0  0  0  0  0
    4.7806    1.1716    0.6276 H   0  0  0  0  0  0  0  0  0  0  0  0
   -0.0406   -2.5361   -0.0554 H   0  0  0  0  0  0  0  0  0  0  0  0
   -3.8121   -1.5959   -0.1494 H   0  0  0  0  0  0  0  0  0  0  0  0
  1  2  1  0
  2  3  2  0
  3  4  1  0
  4  5  2  0
  5  6  1  0
  6  7  1  0
  7  8  1  0
  8  9  2  0
  8 10  1  0
  8 11  1  0
  5 12  1  0
 12 13  1  0
 13 14  2  0
 12 15  2  0
 15 16  1  0
 15  2  1  0
  1 17  1  0
  1 18  1  0
  1 19  1  0
  4 20  1  0
  6 21  1  0
  6 22  1  0
 10 23  1  0
 11 24  1  0
 13 25  1  0
 16 26  1  0
M  END
$$$$

     RDKit          3D

 26 26  0  0  0  0  0  0  0  0999 V2000
   -4.0476   -1.4112   -0.3035 C   0  0  0  0  0  0  0  0  0  0  0  0
   -2.6667   -0.8756   -0.1921 C   0  0  0  0  0  0  0  0  0  0  0  0
   -1.6359   -1.7334   -0.1280 N   0  0  0  0  0  0  0  0  0  0  0  0
   -0.3687   -1.3246   -0.0269 C   0  0  0  0  0  0  0  0  0  0  0  0
   -0.0630    0.0311    0.0167 C   0  0  0  0  0  0  0  0  0  0  0  0
    1.3526    0.4676    0.1347 C   0  0  0  0  0  0  0  0  0  0  0  0
    2.1591   -0.6770    0.1704 O   0  0  0  0  0  0  0  0  0  0  0  0
    3.7845   -0.2834    0.3037 P   0  0  0  0  0  5  0  0  0  0  0  0
    3.8720    1.1583    0.7967 O   0  0  0  0  0  0  0  0  0  0  0  0
    4.6171   -0.4058   -1.1459 O   0  0  0  0  0  0  0  0  0  0  0  0
    4.4734   -1.3030    1.4662 O   0  0  0  0  0  0  0  0  0  0  0  0
   -1.1301    0.9253   -0.0497 C   0  0  0  0  0  0  0  0  0  0  0  0
   -0.8517    2.3507   -0.0105 C   0  0  0  0  0  0  0  0  0  0  0  0
    0.3279    2.7602    0.0828 O   0  0  0  0  0  0  0  0  0  0  0  0
   -2.4509    0.5006   -0.1550 C   0  0  0  0  0  0  0  0  0  0  0  0
   -3.5285    1.3603   -0.2225 O   0  0  0  0  0  0  0  0  0  0  0  0
   -4.7023   -0.7151    0.2642 H   0  0  0  0  0  0  0  0  0  0  0  0
   -4.0829   -2.3843    0.2278 H   0  0  0  0  0  0  0  0  0  0  0  0
   -4.3126   -1.4960   -1.3657 H   0  0  0  0  0  0  0  0  0  0  0  0
    0.4698   -2.0170    0.0252 H   0  0  0  0  0  0  0  0  0  0  0  0
    1.5230    1.0810    1.0684 H   0  0  0  0  0  0  0  0  0  0  0  0
    1.6128    1.0477   -0.7691 H   0  0  0  0  0  0  0  0  0  0  0  0
    5.5728   -0.6637   -1.0205 H   0  0  0  0  0  0  0  0  0  0  0  0
    5.2186   -1.8193    1.0977 H   0  0  0  0  0  0  0  0  0  0  0  0
   -1.6548    3.0697   -0.0610 H   0  0  0  0  0  0  0  0  0  0  0  0
   -3.4879    2.3568   -0.2042 H   0  0  0  0  0  0  0  0  0  0  0  0
  1  2  1  0
  2  3  2  0
  3  4  1  0
  4  5  2  0
  5  6  1  0
  6  7  1  0
  7  8  1  0
  8  9  2  0
  8 10  1  0
  8 11  1  0
  5 12  1  0
 12 13  1  0
 13 14  2  0
 12 15  2  0
 15 16  1  0
 15  2  1  0
  1 17  1  0
  1 18  1  0
  1 19  1  0
  4 20  1  0
  6 21  1  0
  6 22  1  0
 10 23  1  0
 11 24  1  0
 13 25  1  0
 16 26  1  0
M  END
$$$$

     RDKit          3D

 26 26  0  0  0  0  0  0  0  0999 V2000
   -3.8606    0.0125    1.7633 C   0  0  0  0  0  0  0  0  0  0  0  0
   -2.4868   -0.0036    1.1721 C   0  0  0  0  0  0  0  0  0  0  0  0
   -1.3832    0.0780    1.9306 N   0  0  0  0  0  0  0  0  0  0  0  0
   -0.1640    0.0607    1.3672 C   0  0  0  0  0  0  0  0  0  0  0  0
    0.0456   -0.0404   -0.0101 C   0  0  0  0  0  0  0  0  0  0  0  0
    1.4338   -0.0553   -0.5233 C   0  0  0  0  0  0  0  0  0  0  0  0
    2.3267    0.0530    0.5556 O   0  0  0  0  0  0  0  0  0  0  0  0
    3.9159    0.0386   -0.0006 P   0  0  0  0  0  5  0  0  0  0  0  0
    4.0227   -0.5242   -1.3946 O   0  0  0  0  0  0  0  0  0  0  0  0
    4.5095    1.6354    0.0139 O   0  0  0  0  0  0  0  0  0  0  0  0
    4.8453   -0.8552    1.0751 O   0  0  0  0  0  0  0  0  0  0  0  0
   -1.0715   -0.1250   -0.8069 C   0  0  0  0  0  0  0  0  0  0  0  0
   -0.8695   -0.2281   -2.2446 C   0  0  0  0  0  0  0  0  0  0  0  0
    0.2373   -0.2458   -2.7957 O   0  0  0  0  0  0  0  0  0  0  0  0
   -2.3002   -0.1046   -0.1999 C   0  0  0  0  0  0  0  0  0  0  0  0
   -3.4449   -0.1872   -0.9603 O   0  0  0  0  0  0  0  0  0  0  0  0
   -3.7942   -0.1644    2.8314 H   0  0  0  0  0  0  0  0  0  0  0  0
   -4.4275   -0.7800    1.2097 H   0  0  0  0  0  0  0  0  0  0  0  0
   -4.3439    0.9997    1.5224 H   0  0  0  0  0  0  0  0  0  0  0  0
    0.6813    0.1305    2.0451 H   0  0  0  0  0  0  0  0  0  0  0  0
    1.6164   -0.9881   -1.0966 H   0  0  0  0  0  0  0  0  0  0  0  0
    1.6060    0.7888   -1.2204 H   0  0  0  0  0  0  0  0  0  0  0  0
    3.8863    2.2572    0.4565 H   0  0  0  0  0  0  0  0  0  0  0  0
    4.3192   -1.1951    1.8188 H   0  0  0  0  0  0  0  0  0  0  0  0
   -1.7667   -0.2936   -2.8674 H   0  0  0  0  0  0  0  0  0  0  0  0
   -3.5330   -0.2637   -1.9354 H   0  0  0  0  0  0  0  0  0  0  0  0
  1  2  1  0
  2  3  2  0
  3  4  1  0
  4  5  2  0
  5  6  1  0
  6  7  1  0
  7  8  1  0
  8  9  2  0
  8 10  1  0
  8 11  1  0
  5 12  1  0
 12 13  1  0
 13 14  2  0
 12 15  2  0
 15 16  1  0
 15  2  1  0
  1 17  1  0
  1 18  1  0
  1 19  1  0
  4 20  1  0
  6 21  1  0
  6 22  1  0
 10 23  1  0
 11 24  1  0
 13 25  1  0
 16 26  1  0
M  END
$$$$

     RDKit          3D

 26 26  0  0  0  0  0  0  0  0999 V2000
   -4.0693    1.4149   -0.5118 C   0  0  0  0  0  0  0  0  0  0  0  0
   -2.6685    0.9884   -0.4709 C   0  0  0  0  0  0  0  0  0  0  0  0
   -1.6571    1.7340   -0.9644 N   0  0  0  0  0  0  0  0  0  0  0  0
   -0.3731    1.4222   -0.9124 C   0  0  0  0  0  0  0  0  0  0  0  0
    0.0446    0.2287   -0.3079 C   0  0  0  0  0  0  0  0  0  0  0  0
    1.4152   -0.0442    0.0595 C   0  0  0  0  0  0  0  0  0  0  0  0
    2.2810   -0.4730   -0.9571 O   0  0  0  0  0  0  0  0  0  0  0  0
    3.7621   -0.8144   -0.1568 P   0  0  0  0  0  5  0  0  0  0  0  0
    3.5574   -1.9847    0.7365 O   0  0  0  0  0  0  0  0  0  0  0  0
    4.1367    0.5395    0.8348 O   0  0  0  0  0  0  0  0  0  0  0  0
    5.0355   -1.0107   -1.2104 O   0  0  0  0  0  0  0  0  0  0  0  0
   -0.9647   -0.6430    0.2401 C   0  0  0  0  0  0  0  0  0  0  0  0
   -0.4747   -1.8945    0.7504 C   0  0  0  0  0  0  0  0  0  0  0  0
    0.5020   -2.5118    0.9391 O   0  0  0  0  0  0  0  0  0  0  0  0
   -2.2747   -0.2507    0.1499 C   0  0  0  0  0  0  0  0  0  0  0  0
   -3.3133   -0.9536    0.6250 O   0  0  0  0  0  0  0  0  0  0  0  0
   -4.6799    0.9296    0.3067 H   0  0  0  0  0  0  0  0  0  0  0  0
   -4.5383    1.1996   -1.4769 H   0  0  0  0  0  0  0  0  0  0  0  0
   -4.1491    2.5055   -0.3775 H   0  0  0  0  0  0  0  0  0  0  0  0
    0.4209    2.0513   -1.3602 H   0  0  0  0  0  0  0  0  0  0  0  0
    1.6145   -0.3926    1.0652 H   0  0  0  0  0  0  0  0  0  0  0  0
    1.8539    1.1117    0.1716 H   0  0  0  0  0  0  0  0  0  0  0  0
    4.0518    1.4119    0.2925 H   0  0  0  0  0  0  0  0  0  0  0  0
    5.3406   -0.1254   -1.5925 H   0  0  0  0  0  0  0  0  0  0  0  0
   -1.4202   -2.5840    1.1008 H   0  0  0  0  0  0  0  0  0  0  0  0
   -3.4333   -1.8548    1.0479 H   0  0  0  0  0  0  0  0  0  0  0  0
  1  2  1  0
  2  3  2  0
  3  4  1  0
  4  5  2  0
  5  6  1  0
  6  7  1  0
  7  8  1  0
  8  9  2  0
  8 10  1  0
  8 11  1  0
  5 12  1  0
 12 13  1  0
 13 14  2  0
 12 15  2  0
 15 16  1  0
 15  2  1  0
  1 17  1  0
  1 18  1  0
  1 19  1  0
  4 20  1  0
  6 21  1  0
  6 22  1  0
 10 23  1  0
 11 24  1  0
 13 25  1  0
 16 26  1  0
M  END
$$$$

     RDKit          3D

 26 26  0  0  0  0  0  0  0  0999 V2000
   -4.1411   -1.0782    0.1156 C   0  0  0  0  0  0  0  0  0  0  0  0
   -2.6747   -0.8029    0.1229 C   0  0  0  0  0  0  0  0  0  0  0  0
   -1.7648   -1.7735    0.1132 N   0  0  0  0  0  0  0  0  0  0  0  0
   -0.4256   -1.4968    0.1202 C   0  0  0  0  0  0  0  0  0  0  0  0
    0.0329   -0.2160    0.1374 C   0  0  0  0  0  0  0  0  0  0  0  0
    1.4716    0.0675    0.1448 C   0  0  0  0  0  0  0  0  0  0  0  0
    2.2592   -1.0605    0.1328 O   0  0  0  0  0  0  0  0  0  0  0  0
    3.8795   -0.5791    0.1431 P   0  0  0  0  0  5  0  0  0  0  0  0
    4.5052   -0.6993   -1.2258 O   0  0  0  0  0  0  0  0  0  0  0  0
    3.9720    1.0042    0.7366 O   0  0  0  0  0  0  0  0  0  0  0  0
    4.7102   -1.5626    1.2694 O   0  0  0  0  0  0  0  0  0  0  0  0
   -0.8783    0.8515    0.1484 C   0  0  0  0  0  0  0  0  0  0  0  0
   -0.3236    2.1926    0.1666 C   0  0  0  0  0  0  0  0  0  0  0  0
   -1.0310    3.2015    0.1773 O   0  0  0  0  0  0  0  0  0  0  0  0
   -2.2076    0.5275    0.1408 C   0  0  0  0  0  0  0  0  0  0  0  0
   -3.1725    1.4912    0.1503 O   0  0  0  0  0  0  0  0  0  0  0  0
   -4.4319   -1.6817   -0.7753 H   0  0  0  0  0  0  0  0  0  0  0  0
   -4.4781   -1.5636    1.0550 H   0  0  0  0  0  0  0  0  0  0  0  0
   -4.6883   -0.1165    0.0381 H   0  0  0  0  0  0  0  0  0  0  0  0
    0.2267   -2.3796    0.1109 H   0  0  0  0  0  0  0  0  0  0  0  0
    1.7825    0.6832   -0.7469 H   0  0  0  0  0  0  0  0  0  0  0  0
    1.7885    0.6787    1.0247 H   0  0  0  0  0  0  0  0  0  0  0  0
    3.7904    1.6813    0.0235 H   0  0  0  0  0  0  0  0  0  0  0  0
    4.0731   -2.1674    1.7483 H   0  0  0  0  0  0  0  0  0  0  0  0
    0.7454    2.3474    0.1714 H   0  0  0  0  0  0  0  0  0  0  0  0
   -3.0195    2.4510    0.1627 H   0  0  0  0  0  0  0  0  0  0  0  0
  1  2  1  0
  2  3  2  0
  3  4  1  0
  4  5  2  0
  5  6  1  0
  6  7  1  0
  7  8  1  0
  8  9  2  0
  8 10  1  0
  8 11  1  0
  5 12  1  0
 12 13  1  0
 13 14  2  0
 12 15  2  0
 15 16  1  0
 15  2  1  0
  1 17  1  0
  1 18  1  0
  1 19  1  0
  4 20  1  0
  6 21  1  0
  6 22  1  0
 10 23  1  0
 11 24  1  0
 13 25  1  0
 16 26  1  0
M  END
$$$$

     RDKit          3D

 26 26  0  0  0  0  0  0  0  0999 V2000
   -3.0655    2.1276    0.2260 C   0  0  0  0  0  0  0  0  0  0  0  0
   -1.8916    1.2542    0.0091 C   0  0  0  0  0  0  0  0  0  0  0  0
   -0.6793    1.7183   -0.3106 N   0  0  0  0  0  0  0  0  0  0  0  0
    0.3793    0.9263   -0.5055 C   0  0  0  0  0  0  0  0  0  0  0  0
    0.3236   -0.4279   -0.3962 C   0  0  0  0  0  0  0  0  0  0  0  0
    1.4202   -1.3603   -0.6104 C   0  0  0  0  0  0  0  0  0  0  0  0
    2.6523   -0.8729   -0.8962 O   0  0  0  0  0  0  0  0  0  0  0  0
    3.2626    0.0162    0.3951 P   0  0  0  0  0  5  0  0  0  0  0  0
    4.4314   -0.7685    0.9811 O   0  0  0  0  0  0  0  0  0  0  0  0
    3.8716    1.5135   -0.0698 O   0  0  0  0  0  0  0  0  0  0  0  0
    2.0490    0.2224    1.5369 O   0  0  0  0  0  0  0  0  0  0  0  0
   -0.9214   -0.9781   -0.0638 C   0  0  0  0  0  0  0  0  0  0  0  0
   -1.0645   -2.4005    0.0611 C   0  0  0  0  0  0  0  0  0  0  0  0
   -2.1162   -3.0048    0.3472 O   0  0  0  0  0  0  0  0  0  0  0  0
   -2.0093   -0.1423    0.1349 C   0  0  0  0  0  0  0  0  0  0  0  0
   -3.2685   -0.5756    0.4631 O   0  0  0  0  0  0  0  0  0  0  0  0
   -3.5973    1.8719    1.1849 H   0  0  0  0  0  0  0  0  0  0  0  0
   -2.7299    3.1655    0.2866 H   0  0  0  0  0  0  0  0  0  0  0  0
   -3.8230    2.0208   -0.5775 H   0  0  0  0  0  0  0  0  0  0  0  0
    1.2987    1.4007   -0.7749 H   0  0  0  0  0  0  0  0  0  0  0  0
    1.1417   -2.1305   -1.3925 H   0  0  0  0  0  0  0  0  0  0  0  0
    1.4587   -2.0020    0.3357 H   0  0  0  0  0  0  0  0  0  0  0  0
    4.5712    1.7712    0.5713 H   0  0  0  0  0  0  0  0  0  0  0  0
    2.1491    1.1264    1.9276 H   0  0  0  0  0  0  0  0  0  0  0  0
   -0.1826   -3.0237   -0.1071 H   0  0  0  0  0  0  0  0  0  0  0  0
   -3.6601   -1.4478    0.6171 H   0  0  0  0  0  0  0  0  0  0  0  0
  1  2  1  0
  2  3  2  0
  3  4  1  0
  4  5  2  0
  5  6  1  0
  6  7  1  0
  7  8  1  0
  8  9  2  0
  8 10  1  0
  8 11  1  0
  5 12  1  0
 12 13  1  0
 13 14  2  0
 12 15  2  0
 15 16  1  0
 15  2  1  0
  1 17  1  0
  1 18  1  0
  1 19  1  0
  4 20  1  0
  6 21  1  0
  6 22  1  0
 10 23  1  0
 11 24  1  0
 13 25  1  0
 16 26  1  0
M  END
$$$$

     RDKit          3D

 26 26  0  0  0  0  0  0  0  0999 V2000
   -4.1502    0.5226   -0.4520 C   0  0  0  0  0  0  0  0  0  0  0  0
   -2.6635    0.4116   -0.3365 C   0  0  0  0  0  0  0  0  0  0  0  0
   -1.8299    1.3566   -0.7541 N   0  0  0  0  0  0  0  0  0  0  0  0
   -0.4991    1.1842   -0.6157 C   0  0  0  0  0  0  0  0  0  0  0  0
    0.0396    0.0655   -0.0574 C   0  0  0  0  0  0  0  0  0  0  0  0
    1.5117   -0.0697    0.0694 C   0  0  0  0  0  0  0  0  0  0  0  0
    2.1311    1.0661   -0.4488 O   0  0  0  0  0  0  0  0  0  0  0  0
    3.8054    0.8413   -0.2707 P   0  0  0  0  0  5  0  0  0  0  0  0
    4.3528    0.4455   -1.6167 O   0  0  0  0  0  0  0  0  0  0  0  0
    4.1363   -0.2970    0.9169 O   0  0  0  0  0  0  0  0  0  0  0  0
    4.5411    2.2980    0.2017 O   0  0  0  0  0  0  0  0  0  0  0  0
   -0.8121   -0.9299    0.3836 C   0  0  0  0  0  0  0  0  0  0  0  0
   -0.2665   -2.1279    0.9800 C   0  0  0  0  0  0  0  0  0  0  0  0
    0.9617   -2.3154    1.1213 O   0  0  0  0  0  0  0  0  0  0  0  0
   -2.1649   -0.7268    0.2296 C   0  0  0  0  0  0  0  0  0  0  0  0
   -3.0017   -1.7628    0.6906 O   0  0  0  0  0  0  0  0  0  0  0  0
   -4.5801   -0.2265   -1.1265 H   0  0  0  0  0  0  0  0  0  0  0  0
   -4.3630    1.5689   -0.7328 H   0  0  0  0  0  0  0  0  0  0  0  0
   -4.6122    0.3368    0.5562 H   0  0  0  0  0  0  0  0  0  0  0  0
    0.1830    1.9703   -0.9635 H   0  0  0  0  0  0  0  0  0  0  0  0
    1.8139   -0.9322   -0.5588 H   0  0  0  0  0  0  0  0  0  0  0  0
    1.8486   -0.1541    1.1225 H   0  0  0  0  0  0  0  0  0  0  0  0
    4.6726   -1.0342    0.4995 H   0  0  0  0  0  0  0  0  0  0  0  0
    3.8892    3.0340    0.2113 H   0  0  0  0  0  0  0  0  0  0  0  0
   -0.9404   -2.8943    1.3187 H   0  0  0  0  0  0  0  0  0  0  0  0
   -4.0033   -1.6308    0.5854 H   0  0  0  0  0  0  0  0  0  0  0  0
  1  2  1  0
  2  3  2  0
  3  4  1  0
  4  5  2  0
  5  6  1  0
  6  7  1  0
  7  8  1  0
  8  9  2  0
  8 10  1  0
  8 11  1  0
  5 12  1  0
 12 13  1  0
 13 14  2  0
 12 15  2  0
 15 16  1  0
 15  2  1  0
  1 17  1  0
  1 18  1  0
  1 19  1  0
  4 20  1  0
  6 21  1  0
  6 22  1  0
 10 23  1  0
 11 24  1  0
 13 25  1  0
 16 26  1  0
M  END
$$$$

     RDKit          3D

 26 26  0  0  0  0  0  0  0  0999 V2000
    4.0116    0.9493   -0.8628 C   0  0  0  0  0  0  0  0  0  0  0  0
    2.5843    0.5759   -0.6229 C   0  0  0  0  0  0  0  0  0  0  0  0
    1.6467    0.6176   -1.5670 N   0  0  0  0  0  0  0  0  0  0  0  0
    0.3697    0.2812   -1.3431 C   0  0  0  0  0  0  0  0  0  0  0  0
   -0.0374   -0.1318   -0.0973 C   0  0  0  0  0  0  0  0  0  0  0  0
   -1.4514   -0.4818    0.1035 C   0  0  0  0  0  0  0  0  0  0  0  0
   -2.1233   -0.3240   -1.1148 O   0  0  0  0  0  0  0  0  0  0  0  0
   -3.7631   -0.7060   -0.9785 P   0  0  0  0  0  5  0  0  0  0  0  0
   -4.0817   -1.9936   -1.6998 O   0  0  0  0  0  0  0  0  0  0  0  0
   -4.6421    0.5239   -1.7319 O   0  0  0  0  0  0  0  0  0  0  0  0
   -4.2384   -0.8112    0.6429 O   0  0  0  0  0  0  0  0  0  0  0  0
    0.8763   -0.1951    0.9083 C   0  0  0  0  0  0  0  0  0  0  0  0
    0.5160   -0.6249    2.2365 C   0  0  0  0  0  0  0  0  0  0  0  0
   -0.6682   -0.9472    2.4755 O   0  0  0  0  0  0  0  0  0  0  0  0
    2.2005    0.1642    0.6367 C   0  0  0  0  0  0  0  0  0  0  0  0
    3.0964    0.0917    1.6640 O   0  0  0  0  0  0  0  0  0  0  0  0
    4.2784    1.8957   -0.3877 H   0  0  0  0  0  0  0  0  0  0  0  0
    4.6242    0.1097   -0.4683 H   0  0  0  0  0  0  0  0  0  0  0  0
    4.1943    0.9520   -1.9702 H   0  0  0  0  0  0  0  0  0  0  0  0
   -0.3202    0.3513   -2.1889 H   0  0  0  0  0  0  0  0  0  0  0  0
   -1.9268    0.1404    0.8964 H   0  0  0  0  0  0  0  0  0  0  0  0
   -1.4979   -1.5500    0.3849 H   0  0  0  0  0  0  0  0  0  0  0  0
   -4.2835    1.4140   -1.4728 H   0  0  0  0  0  0  0  0  0  0  0  0
   -4.6384    0.0416    0.8929 H   0  0  0  0  0  0  0  0  0  0  0  0
    1.2139   -0.6888    3.0570 H   0  0  0  0  0  0  0  0  0  0  0  0
    4.0600    0.3460    1.4937 H   0  0  0  0  0  0  0  0  0  0  0  0
  1  2  1  0
  2  3  2  0
  3  4  1  0
  4  5  2  0
  5  6  1  0
  6  7  1  0
  7  8  1  0
  8  9  2  0
  8 10  1  0
  8 11  1  0
  5 12  1  0
 12 13  1  0
 13 14  2  0
 12 15  2  0
 15 16  1  0
 15  2  1  0
  1 17  1  0
  1 18  1  0
  1 19  1  0
  4 20  1  0
  6 21  1  0
  6 22  1  0
 10 23  1  0
 11 24  1  0
 13 25  1  0
 16 26  1  0
M  END
$$$$

     RDKit          3D

 26 26  0  0  0  0  0  0  0  0999 V2000
    3.7257    1.3291    0.3029 C   0  0  0  0  0  0  0  0  0  0  0  0
    2.4252    0.5775    0.4902 C   0  0  0  0  0  0  0  0  0  0  0  0
    1.4786    1.1812    1.2799 N   0  0  0  0  0  0  0  0  0  0  0  0
    0.2444    0.6893    1.3420 C   0  0  0  0  0  0  0  0  0  0  0  0
   -0.0369   -0.4692    0.5894 C   0  0  0  0  0  0  0  0  0  0  0  0
   -1.5327   -0.7106    0.4554 C   0  0  0  0  0  0  0  0  0  0  0  0
   -1.8759    0.6472    0.1628 O   0  0  0  0  0  0  0  0  0  0  0  0
   -3.4260    0.9588    0.0001 P   0  0  0  0  0  5  0  0  0  0  0  0
   -3.9579    1.1886    1.4530 O   0  0  0  0  0  0  0  0  0  0  0  0
   -4.2642   -0.3347   -0.6850 O   0  0  0  0  0  0  0  0  0  0  0  0
   -3.7452    2.4194   -0.8477 O   0  0  0  0  0  0  0  0  0  0  0  0
    0.9293   -1.0989   -0.1912 C   0  0  0  0  0  0  0  0  0  0  0  0
    0.4971   -2.2400   -0.9828 C   0  0  0  0  0  0  0  0  0  0  0  0
    1.3028   -2.7826   -1.8083 O   0  0  0  0  0  0  0  0  0  0  0  0
    2.1768   -0.5409   -0.2342 C   0  0  0  0  0  0  0  0  0  0  0  0
    3.1781   -1.1188   -1.0046 O   0  0  0  0  0  0  0  0  0  0  0  0
    3.5698    2.3563    0.7181 H   0  0  0  0  0  0  0  0  0  0  0  0
    3.7508    1.5001   -0.8071 H   0  0  0  0  0  0  0  0  0  0  0  0
    4.6175    0.8828    0.6538 H   0  0  0  0  0  0  0  0  0  0  0  0
   -0.5624    1.0744    1.9975 H   0  0  0  0  0  0  0  0  0  0  0  0
   -1.9038   -0.8891    1.5310 H   0  0  0  0  0  0  0  0  0  0  0  0
   -1.7625   -1.4143   -0.2823 H   0  0  0  0  0  0  0  0  0  0  0  0
   -4.2802   -1.0443    0.0624 H   0  0  0  0  0  0  0  0  0  0  0  0
   -3.2653    2.4071   -1.6911 H   0  0  0  0  0  0  0  0  0  0  0  0
   -0.4887   -2.7106   -0.9209 H   0  0  0  0  0  0  0  0  0  0  0  0
    3.2055   -1.8579   -1.5835 H   0  0  0  0  0  0  0  0  0  0  0  0
  1  2  1  0
  2  3  2  0
  3  4  1  0
  4  5  2  0
  5  6  1  0
  6  7  1  0
  7  8  1  0
  8  9  2  0
  8 10  1  0
  8 11  1  0
  5 12  1  0
 12 13  1  0
 13 14  2  0
 12 15  2  0
 15 16  1  0
 15  2  1  0
  1 17  1  0
  1 18  1  0
  1 19  1  0
  4 20  1  0
  6 21  1  0
  6 22  1  0
 10 23  1  0
 11 24  1  0
 13 25  1  0
 16 26  1  0
M  END
$$$$

     RDKit          3D

 26 26  0  0  0  0  0  0  0  0999 V2000
    4.2375    0.4691   -1.0586 C   0  0  0  0  0  0  0  0  0  0  0  0
    2.7754    0.3445   -0.7595 C   0  0  0  0  0  0  0  0  0  0  0  0
    1.8261    0.7912   -1.5879 N   0  0  0  0  0  0  0  0  0  0  0  0
    0.5117    0.6906   -1.3411 C   0  0  0  0  0  0  0  0  0  0  0  0
    0.0443    0.0996   -0.1772 C   0  0  0  0  0  0  0  0  0  0  0  0
   -1.4071   -0.0130    0.1114 C   0  0  0  0  0  0  0  0  0  0  0  0
   -2.1643    0.5397   -0.9469 O   0  0  0  0  0  0  0  0  0  0  0  0
   -3.8105    0.3951   -0.5862 P   0  0  0  0  0  5  0  0  0  0  0  0
   -4.6288    1.4484   -1.2889 O   0  0  0  0  0  0  0  0  0  0  0  0
   -4.0726    0.5725    1.0839 O   0  0  0  0  0  0  0  0  0  0  0  0
   -4.3358   -1.1566   -1.0672 O   0  0  0  0  0  0  0  0  0  0  0  0
    1.0015   -0.3720    0.6987 C   0  0  0  0  0  0  0  0  0  0  0  0
    0.5733   -1.0178    1.9589 C   0  0  0  0  0  0  0  0  0  0  0  0
   -0.6546   -1.1406    2.2419 O   0  0  0  0  0  0  0  0  0  0  0  0
    2.3493   -0.2606    0.4300 C   0  0  0  0  0  0  0  0  0  0  0  0
    3.3394   -0.7178    1.2772 O   0  0  0  0  0  0  0  0  0  0  0  0
    4.7399    0.7082   -0.1071 H   0  0  0  0  0  0  0  0  0  0  0  0
    4.3509    1.2944   -1.8065 H   0  0  0  0  0  0  0  0  0  0  0  0
    4.5806   -0.4616   -1.5071 H   0  0  0  0  0  0  0  0  0  0  0  0
   -0.2436    1.0582   -2.0240 H   0  0  0  0  0  0  0  0  0  0  0  0
   -1.6973    0.5236    1.0282 H   0  0  0  0  0  0  0  0  0  0  0  0
   -1.6664   -1.0855    0.1415 H   0  0  0  0  0  0  0  0  0  0  0  0
   -4.8315    1.1805    1.2744 H   0  0  0  0  0  0  0  0  0  0  0  0
   -5.2559   -1.3272   -0.8036 H   0  0  0  0  0  0  0  0  0  0  0  0
    1.2669   -1.4004    2.6694 H   0  0  0  0  0  0  0  0  0  0  0  0
    3.1714   -1.1626    2.1460 H   0  0  0  0  0  0  0  0  0  0  0  0
  1  2  1  0
  2  3  2  0
  3  4  1  0
  4  5  2  0
  5  6  1  0
  6  7  1  0
  7  8  1  0
  8  9  2  0
  8 10  1  0
  8 11  1  0
  5 12  1  0
 12 13  1  0
 13 14  2  0
 12 15  2  0
 15 16  1  0
 15  2  1  0
  1 17  1  0
  1 18  1  0
  1 19  1  0
  4 20  1  0
  6 21  1  0
  6 22  1  0
 10 23  1  0
 11 24  1  0
 13 25  1  0
 16 26  1  0
M  END
$$$$

     RDKit          3D

 26 26  0  0  0  0  0  0  0  0999 V2000
   -3.6835    2.0244   -0.0534 C   0  0  0  0  0  0  0  0  0  0  0  0
   -2.3647    1.3103   -0.0171 C   0  0  0  0  0  0  0  0  0  0  0  0
   -1.3113    2.0184    0.3773 N   0  0  0  0  0  0  0  0  0  0  0  0
   -0.0983    1.4450    0.4346 C   0  0  0  0  0  0  0  0  0  0  0  0
    0.0747    0.1310    0.0905 C   0  0  0  0  0  0  0  0  0  0  0  0
    1.3845   -0.5259    0.1415 C   0  0  0  0  0  0  0  0  0  0  0  0
    2.3571    0.3915    0.5810 O   0  0  0  0  0  0  0  0  0  0  0  0
    3.8245   -0.4548    0.6067 P   0  0  0  0  0  5  0  0  0  0  0  0
    4.3916   -0.5299   -0.7809 O   0  0  0  0  0  0  0  0  0  0  0  0
    4.8736    0.4030    1.6204 O   0  0  0  0  0  0  0  0  0  0  0  0
    3.5193   -2.0041    1.2059 O   0  0  0  0  0  0  0  0  0  0  0  0
   -1.0238   -0.6180   -0.3238 C   0  0  0  0  0  0  0  0  0  0  0  0
   -0.8289   -1.9900   -0.6804 C   0  0  0  0  0  0  0  0  0  0  0  0
   -1.7359   -2.7458   -1.0618 O   0  0  0  0  0  0  0  0  0  0  0  0
   -2.2703   -0.0382   -0.3853 C   0  0  0  0  0  0  0  0  0  0  0  0
   -3.4326   -0.6257   -0.7651 O   0  0  0  0  0  0  0  0  0  0  0  0
   -3.7524    2.5532    0.9339 H   0  0  0  0  0  0  0  0  0  0  0  0
   -3.6484    2.7129   -0.9039 H   0  0  0  0  0  0  0  0  0  0  0  0
   -4.5085    1.2911   -0.1858 H   0  0  0  0  0  0  0  0  0  0  0  0
    0.7317    2.0625    0.7624 H   0  0  0  0  0  0  0  0  0  0  0  0
    1.6615   -0.7790   -0.9220 H   0  0  0  0  0  0  0  0  0  0  0  0
    1.4071   -1.4299    0.7538 H   0  0  0  0  0  0  0  0  0  0  0  0
    4.8747    1.3396    1.2980 H   0  0  0  0  0  0  0  0  0  0  0  0
    2.9458   -1.9727    2.0061 H   0  0  0  0  0  0  0  0  0  0  0  0
    0.1688   -2.4187   -0.6211 H   0  0  0  0  0  0  0  0  0  0  0  0
   -3.5562   -1.5503   -1.0520 H   0  0  0  0  0  0  0  0  0  0  0  0
  1  2  1  0
  2  3  2  0
  3  4  1  0
  4  5  2  0
  5  6  1  0
  6  7  1  0
  7  8  1  0
  8  9  2  0
  8 10  1  0
  8 11  1  0
  5 12  1  0
 12 13  1  0
 13 14  2  0
 12 15  2  0
 15 16  1  0
 15  2  1  0
  1 17  1  0
  1 18  1  0
  1 19  1  0
  4 20  1  0
  6 21  1  0
  6 22  1  0
 10 23  1  0
 11 24  1  0
 13 25  1  0
 16 26  1  0
M  END
$$$$

     RDKit          3D

 26 26  0  0  0  0  0  0  0  0999 V2000
    2.9380    1.8939   -1.2915 C   0  0  0  0  0  0  0  0  0  0  0  0
    1.7972    1.0324   -0.8949 C   0  0  0  0  0  0  0  0  0  0  0  0
    0.5359    1.2961   -1.2247 N   0  0  0  0  0  0  0  0  0  0  0  0
   -0.5028    0.5163   -0.8663 C   0  0  0  0  0  0  0  0  0  0  0  0
   -0.3003   -0.6177   -0.1213 C   0  0  0  0  0  0  0  0  0  0  0  0
   -1.3947   -1.5282    0.2937 C   0  0  0  0  0  0  0  0  0  0  0  0
   -2.6274   -1.0640   -0.0708 O   0  0  0  0  0  0  0  0  0  0  0  0
   -3.1670    0.3228    0.6799 P   0  0  0  0  0  5  0  0  0  0  0  0
   -4.1723   -0.0047    1.7871 O   0  0  0  0  0  0  0  0  0  0  0  0
   -4.0191    1.2567   -0.4432 O   0  0  0  0  0  0  0  0  0  0  0  0
   -1.9685    1.2727    1.3655 O   0  0  0  0  0  0  0  0  0  0  0  0
    1.0203   -0.9436    0.2522 C   0  0  0  0  0  0  0  0  0  0  0  0
    1.2311   -2.1518    1.0099 C   0  0  0  0  0  0  0  0  0  0  0  0
    0.3823   -2.9501    1.3933 O   0  0  0  0  0  0  0  0  0  0  0  0
    2.0610   -0.1193   -0.1341 C   0  0  0  0  0  0  0  0  0  0  0  0
    3.3577   -0.4017    0.2112 O   0  0  0  0  0  0  0  0  0  0  0  0
    2.9574    2.7763   -0.6188 H   0  0  0  0  0  0  0  0  0  0  0  0
    2.8556    2.1898   -2.3678 H   0  0  0  0  0  0  0  0  0  0  0  0
    3.8757    1.3234   -1.1956 H   0  0  0  0  0  0  0  0  0  0  0  0
   -1.5077    0.7733   -1.2072 H   0  0  0  0  0  0  0  0  0  0  0  0
   -1.2668   -2.5189   -0.1844 H   0  0  0  0  0  0  0  0  0  0  0  0
   -1.3586   -1.6727    1.4193 H   0  0  0  0  0  0  0  0  0  0  0  0
   -4.4683    0.6498   -1.1114 H   0  0  0  0  0  0  0  0  0  0  0  0
   -2.1557    2.2520    1.2960 H   0  0  0  0  0  0  0  0  0  0  0  0
    2.2672   -2.4030    1.2851 H   0  0  0  0  0  0  0  0  0  0  0  0
    3.6298   -1.1796    0.7387 H   0  0  0  0  0  0  0  0  0  0  0  0
  1  2  1  0
  2  3  2  0
  3  4  1  0
  4  5  2  0
  5  6  1  0
  6  7  1  0
  7  8  1  0
  8  9  2  0
  8 10  1  0
  8 11  1  0
  5 12  1  0
 12 13  1  0
 13 14  2  0
 12 15  2  0
 15 16  1  0
 15  2  1  0
  1 17  1  0
  1 18  1  0
  1 19  1  0
  4 20  1  0
  6 21  1  0
  6 22  1  0
 10 23  1  0
 11 24  1  0
 13 25  1  0
 16 26  1  0
M  END
$$$$

     RDKit          3D

 26 26  0  0  0  0  0  0  0  0999 V2000
   -3.7386    1.8984    0.0597 C   0  0  0  0  0  0  0  0  0  0  0  0
   -2.4400    1.2215   -0.1198 C   0  0  0  0  0  0  0  0  0  0  0  0
   -1.3318    1.9085   -0.4480 N   0  0  0  0  0  0  0  0  0  0  0  0
   -0.1529    1.3068   -0.5895 C   0  0  0  0  0  0  0  0  0  0  0  0
    0.0086   -0.0467   -0.3736 C   0  0  0  0  0  0  0  0  0  0  0  0
    1.3237   -0.6639   -0.5949 C   0  0  0  0  0  0  0  0  0  0  0  0
    2.1485    0.1083    0.2401 O   0  0  0  0  0  0  0  0  0  0  0  0
    3.7063   -0.3508    0.3684 P   0  0  0  0  0  5  0  0  0  0  0  0
    3.9028   -1.8352    0.2747 O   0  0  0  0  0  0  0  0  0  0  0  0
    4.2418    0.0972    1.9425 O   0  0  0  0  0  0  0  0  0  0  0  0
    4.6888    0.4082   -0.7878 O   0  0  0  0  0  0  0  0  0  0  0  0
   -1.0795   -0.7349   -0.0362 C   0  0  0  0  0  0  0  0  0  0  0  0
   -0.9548   -2.1635    0.3205 C   0  0  0  0  0  0  0  0  0  0  0  0
    0.0834   -2.7911    0.3433 O   0  0  0  0  0  0  0  0  0  0  0  0
   -2.3513   -0.1375    0.0878 C   0  0  0  0  0  0  0  0  0  0  0  0
   -3.4855   -0.8284    0.4127 O   0  0  0  0  0  0  0  0  0  0  0  0
   -3.5370    2.9842    0.1648 H   0  0  0  0  0  0  0  0  0  0  0  0
   -4.2989    1.5453    0.9479 H   0  0  0  0  0  0  0  0  0  0  0  0
   -4.2987    1.7531   -0.8934 H   0  0  0  0  0  0  0  0  0  0  0  0
    0.6822    1.9050   -0.9921 H   0  0  0  0  0  0  0  0  0  0  0  0
    1.4704   -1.6673   -0.7806 H   0  0  0  0  0  0  0  0  0  0  0  0
    1.6725   -0.1462   -1.6334 H   0  0  0  0  0  0  0  0  0  0  0  0
    3.8651    1.0145    2.0996 H   0  0  0  0  0  0  0  0  0  0  0  0
    5.2726   -0.2544   -1.2075 H   0  0  0  0  0  0  0  0  0  0  0  0
   -1.8467   -2.7481    0.5889 H   0  0  0  0  0  0  0  0  0  0  0  0
   -3.5508   -1.7829    0.6281 H   0  0  0  0  0  0  0  0  0  0  0  0
  1  2  1  0
  2  3  2  0
  3  4  1  0
  4  5  2  0
  5  6  1  0
  6  7  1  0
  7  8  1  0
  8  9  2  0
  8 10  1  0
  8 11  1  0
  5 12  1  0
 12 13  1  0
 13 14  2  0
 12 15  2  0
 15 16  1  0
 15  2  1  0
  1 17  1  0
  1 18  1  0
  1 19  1  0
  4 20  1  0
  6 21  1  0
  6 22  1  0
 10 23  1  0
 11 24  1  0
 13 25  1  0
 16 26  1  0
M  END
$$$$

     RDKit          3D

 26 26  0  0  0  0  0  0  0  0999 V2000
   -4.0550    0.9886   -0.7496 C   0  0  0  0  0  0  0  0  0  0  0  0
   -2.6267    0.6629   -0.4455 C   0  0  0  0  0  0  0  0  0  0  0  0
   -1.6252    1.4768   -0.7613 N   0  0  0  0  0  0  0  0  0  0  0  0
   -0.3337    1.2141   -0.5024 C   0  0  0  0  0  0  0  0  0  0  0  0
   -0.0066    0.0422    0.1240 C   0  0  0  0  0  0  0  0  0  0  0  0
    1.3890   -0.3154    0.4411 C   0  0  0  0  0  0  0  0  0  0  0  0
    2.2249    0.6904    0.0119 O   0  0  0  0  0  0  0  0  0  0  0  0
    3.8089    0.2660    0.3812 P   0  0  0  0  0  5  0  0  0  0  0  0
    3.8917   -1.1880    0.6988 O   0  0  0  0  0  0  0  0  0  0  0  0
    4.2392    1.1405    1.7865 O   0  0  0  0  0  0  0  0  0  0  0  0
    4.8672    0.7293   -0.8437 O   0  0  0  0  0  0  0  0  0  0  0  0
   -1.0086   -0.8514    0.4801 C   0  0  0  0  0  0  0  0  0  0  0  0
   -0.6317   -2.0739    1.1372 C   0  0  0  0  0  0  0  0  0  0  0  0
   -1.4564   -2.9219    1.4874 O   0  0  0  0  0  0  0  0  0  0  0  0
   -2.3366   -0.5461    0.1962 C   0  0  0  0  0  0  0  0  0  0  0  0
   -3.3839   -1.3502    0.5025 O   0  0  0  0  0  0  0  0  0  0  0  0
   -4.6806    0.1135   -0.5922 H   0  0  0  0  0  0  0  0  0  0  0  0
   -4.0654    1.3765   -1.7846 H   0  0  0  0  0  0  0  0  0  0  0  0
   -4.3442    1.8034   -0.0334 H   0  0  0  0  0  0  0  0  0  0  0  0
    0.4732    1.8855   -0.7648 H   0  0  0  0  0  0  0  0  0  0  0  0
    1.6882   -1.2564   -0.0630 H   0  0  0  0  0  0  0  0  0  0  0  0
    1.4567   -0.5128    1.5313 H   0  0  0  0  0  0  0  0  0  0  0  0
    3.8787    2.0648    1.6310 H   0  0  0  0  0  0  0  0  0  0  0  0
    5.7033    1.0740   -0.4501 H   0  0  0  0  0  0  0  0  0  0  0  0
    0.4196   -2.2939    1.3510 H   0  0  0  0  0  0  0  0  0  0  0  0
   -3.4861   -2.2185    0.9332 H   0  0  0  0  0  0  0  0  0  0  0  0
  1  2  1  0
  2  3  2  0
  3  4  1  0
  4  5  2  0
  5  6  1  0
  6  7  1  0
  7  8  1  0
  8  9  2  0
  8 10  1  0
  8 11  1  0
  5 12  1  0
 12 13  1  0
 13 14  2  0
 12 15  2  0
 15 16  1  0
 15  2  1  0
  1 17  1  0
  1 18  1  0
  1 19  1  0
  4 20  1  0
  6 21  1  0
  6 22  1  0
 10 23  1  0
 11 24  1  0
 13 25  1  0
 16 26  1  0
M  END
$$$$

     RDKit          3D

 26 26  0  0  0  0  0  0  0  0999 V2000
   -4.1530    0.7438    0.8244 C   0  0  0  0  0  0  0  0  0  0  0  0
   -2.7013    0.5246    0.5539 C   0  0  0  0  0  0  0  0  0  0  0  0
   -1.7863    1.1739    1.2880 N   0  0  0  0  0  0  0  0  0  0  0  0
   -0.4715    1.0066    1.0790 C   0  0  0  0  0  0  0  0  0  0  0  0
   -0.0820    0.1478    0.0875 C   0  0  0  0  0  0  0  0  0  0  0  0
    1.3479   -0.0602   -0.1699 C   0  0  0  0  0  0  0  0  0  0  0  0
    2.1601    0.6864    0.6774 O   0  0  0  0  0  0  0  0  0  0  0  0
    3.7661    0.3492    0.2695 P   0  0  0  0  0  5  0  0  0  0  0  0
    3.9904    0.4862   -1.2187 O   0  0  0  0  0  0  0  0  0  0  0  0
    4.8379    1.3628    1.0963 O   0  0  0  0  0  0  0  0  0  0  0  0
    4.1582   -1.2426    0.6923 O   0  0  0  0  0  0  0  0  0  0  0  0
   -1.0085   -0.5474   -0.6993 C   0  0  0  0  0  0  0  0  0  0  0  0
   -0.5463   -1.4499   -1.7420 C   0  0  0  0  0  0  0  0  0  0  0  0
   -1.2579   -2.1180   -2.5004 O   0  0  0  0  0  0  0  0  0  0  0  0
   -2.3524   -0.3652   -0.4727 C   0  0  0  0  0  0  0  0  0  0  0  0
   -3.3808   -0.9545   -1.1365 O   0  0  0  0  0  0  0  0  0  0  0  0
   -4.5188    1.6736    0.3497 H   0  0  0  0  0  0  0  0  0  0  0  0
   -4.2652    0.8754    1.9253 H   0  0  0  0  0  0  0  0  0  0  0  0
   -4.7802   -0.0833    0.4750 H   0  0  0  0  0  0  0  0  0  0  0  0
    0.2577    1.5547    1.6993 H   0  0  0  0  0  0  0  0  0  0  0  0
    1.6578   -1.1276   -0.1014 H   0  0  0  0  0  0  0  0  0  0  0  0
    1.5495    0.2912   -1.2186 H   0  0  0  0  0  0  0  0  0  0  0  0
    5.6099    1.5161    0.4953 H   0  0  0  0  0  0  0  0  0  0  0  0
    4.7208   -1.2949    1.4953 H   0  0  0  0  0  0  0  0  0  0  0  0
    0.5439   -1.5506   -1.8716 H   0  0  0  0  0  0  0  0  0  0  0  0
   -3.2963   -1.5981   -1.8770 H   0  0  0  0  0  0  0  0  0  0  0  0
  1  2  1  0
  2  3  2  0
  3  4  1  0
  4  5  2  0
  5  6  1  0
  6  7  1  0
  7  8  1  0
  8  9  2  0
  8 10  1  0
  8 11  1  0
  5 12  1  0
 12 13  1  0
 13 14  2  0
 12 15  2  0
 15 16  1  0
 15  2  1  0
  1 17  1  0
  1 18  1  0
  1 19  1  0
  4 20  1  0
  6 21  1  0
  6 22  1  0
 10 23  1  0
 11 24  1  0
 13 25  1  0
 16 26  1  0
M  END
$$$$

     RDKit          3D

 26 26  0  0  0  0  0  0  0  0999 V2000
    3.6841    1.6658    0.0214 C   0  0  0  0  0  0  0  0  0  0  0  0
    2.3724    0.9791    0.1849 C   0  0  0  0  0  0  0  0  0  0  0  0
    1.3363    1.5320    0.7967 N   0  0  0  0  0  0  0  0  0  0  0  0
    0.1333    0.9254    0.8661 C   0  0  0  0  0  0  0  0  0  0  0  0
    0.0371   -0.2847    0.2844 C   0  0  0  0  0  0  0  0  0  0  0  0
   -1.3897   -0.9700    0.3980 C   0  0  0  0  0  0  0  0  0  0  0  0
   -2.1424    0.0904   -0.0877 O   0  0  0  0  0  0  0  0  0  0  0  0
   -3.7288    0.0037   -0.1989 P   0  0  0  0  0  5  0  0  0  0  0  0
   -4.2543   -1.1871   -0.9064 O   0  0  0  0  0  0  0  0  0  0  0  0
   -4.2932    1.3967   -1.0783 O   0  0  0  0  0  0  0  0  0  0  0  0
   -4.4365    0.2129    1.3480 O   0  0  0  0  0  0  0  0  0  0  0  0
    0.9864   -0.9131   -0.3458 C   0  0  0  0  0  0  0  0  0  0  0  0
    0.8004   -2.1641   -1.0644 C   0  0  0  0  0  0  0  0  0  0  0  0
    1.7199   -2.6477   -1.7968 O   0  0  0  0  0  0  0  0  0  0  0  0
    2.2059   -0.2951   -0.4241 C   0  0  0  0  0  0  0  0  0  0  0  0
    3.2948   -0.8457   -1.0637 O   0  0  0  0  0  0  0  0  0  0  0  0
    4.4720    1.3653    0.6976 H   0  0  0  0  0  0  0  0  0  0  0  0
    4.0016    1.5610   -1.0628 H   0  0  0  0  0  0  0  0  0  0  0  0
    3.4166    2.7744    0.0514 H   0  0  0  0  0  0  0  0  0  0  0  0
   -0.7209    1.3387    1.3630 H   0  0  0  0  0  0  0  0  0  0  0  0
   -1.4407   -1.9288    0.0561 H   0  0  0  0  0  0  0  0  0  0  0  0
   -1.6319   -0.9368    1.5799 H   0  0  0  0  0  0  0  0  0  0  0  0
   -3.6006    2.0887   -0.8611 H   0  0  0  0  0  0  0  0  0  0  0  0
   -4.9528   -0.5381    1.6386 H   0  0  0  0  0  0  0  0  0  0  0  0
   -0.0930   -2.8013   -1.0424 H   0  0  0  0  0  0  0  0  0  0  0  0
    4.2241   -0.4217   -1.1206 H   0  0  0  0  0  0  0  0  0  0  0  0
  1  2  1  0
  2  3  2  0
  3  4  1  0
  4  5  2  0
  5  6  1  0
  6  7  1  0
  7  8  1  0
  8  9  2  0
  8 10  1  0
  8 11  1  0
  5 12  1  0
 12 13  1  0
 13 14  2  0
 12 15  2  0
 15 16  1  0
 15  2  1  0
  1 17  1  0
  1 18  1  0
  1 19  1  0
  4 20  1  0
  6 21  1  0
  6 22  1  0
 10 23  1  0
 11 24  1  0
 13 25  1  0
 16 26  1  0
M  END
$$$$

     RDKit          3D

 26 26  0  0  0  0  0  0  0  0999 V2000
   -3.4332    1.2553   -1.1987 C   0  0  0  0  0  0  0  0  0  0  0  0
   -2.1430    0.6098   -0.8007 C   0  0  0  0  0  0  0  0  0  0  0  0
   -1.0644    0.6649   -1.5919 N   0  0  0  0  0  0  0  0  0  0  0  0
    0.1097    0.0750   -1.2229 C   0  0  0  0  0  0  0  0  0  0  0  0
    0.2548   -0.5951   -0.0443 C   0  0  0  0  0  0  0  0  0  0  0  0
    1.5050   -1.2613    0.3230 C   0  0  0  0  0  0  0  0  0  0  0  0
    2.5422   -1.0482   -0.5448 O   0  0  0  0  0  0  0  0  0  0  0  0
    3.0793    0.5323   -0.6391 P   0  0  0  0  0  5  0  0  0  0  0  0
    2.1403    1.5215    0.0096 O   0  0  0  0  0  0  0  0  0  0  0  0
    3.4380    1.0207   -2.2167 O   0  0  0  0  0  0  0  0  0  0  0  0
    4.5793    0.6380    0.2048 O   0  0  0  0  0  0  0  0  0  0  0  0
   -0.8600   -0.6693    0.8041 C   0  0  0  0  0  0  0  0  0  0  0  0
   -0.7565   -1.3750    2.0720 C   0  0  0  0  0  0  0  0  0  0  0  0
   -1.7377   -1.4647    2.8644 O   0  0  0  0  0  0  0  0  0  0  0  0
   -2.0118   -0.0670    0.3964 C   0  0  0  0  0  0  0  0  0  0  0  0
   -3.1361   -0.1163    1.2046 O   0  0  0  0  0  0  0  0  0  0  0  0
   -4.1964    0.5365   -1.5007 H   0  0  0  0  0  0  0  0  0  0  0  0
   -3.1880    1.9896   -1.9994 H   0  0  0  0  0  0  0  0  0  0  0  0
   -3.7730    1.8665   -0.3318 H   0  0  0  0  0  0  0  0  0  0  0  0
    0.8898    0.1670   -1.9567 H   0  0  0  0  0  0  0  0  0  0  0  0
    1.7947   -1.0036    1.3860 H   0  0  0  0  0  0  0  0  0  0  0  0
    1.3045   -2.3730    0.3569 H   0  0  0  0  0  0  0  0  0  0  0  0
    3.1996    0.3450   -2.8907 H   0  0  0  0  0  0  0  0  0  0  0  0
    5.2904    0.2732   -0.3889 H   0  0  0  0  0  0  0  0  0  0  0  0
    0.1873   -1.8289    2.3306 H   0  0  0  0  0  0  0  0  0  0  0  0
   -4.0147    0.3071    0.9613 H   0  0  0  0  0  0  0  0  0  0  0  0
  1  2  1  0
  2  3  2  0
  3  4  1  0
  4  5  2  0
  5  6  1  0
  6  7  1  0
  7  8  1  0
  8  9  2  0
  8 10  1  0
  8 11  1  0
  5 12  1  0
 12 13  1  0
 13 14  2  0
 12 15  2  0
 15 16  1  0
 15  2  1  0
  1 17  1  0
  1 18  1  0
  1 19  1  0
  4 20  1  0
  6 21  1  0
  6 22  1  0
 10 23  1  0
 11 24  1  0
 13 25  1  0
 16 26  1  0
M  END
$$$$

     RDKit          3D

 26 26  0  0  0  0  0  0  0  0999 V2000
   -4.0780   -1.1450    0.7924 C   0  0  0  0  0  0  0  0  0  0  0  0
   -2.6563   -0.7821    0.5970 C   0  0  0  0  0  0  0  0  0  0  0  0
   -1.6620   -1.1832    1.3645 N   0  0  0  0  0  0  0  0  0  0  0  0
   -0.3841   -0.8198    1.1374 C   0  0  0  0  0  0  0  0  0  0  0  0
   -0.0231   -0.0127    0.1007 C   0  0  0  0  0  0  0  0  0  0  0  0
    1.3716    0.4006   -0.1701 C   0  0  0  0  0  0  0  0  0  0  0  0
    2.2464   -0.1380    0.7615 O   0  0  0  0  0  0  0  0  0  0  0  0
    3.8297    0.3267    0.4602 P   0  0  0  0  0  5  0  0  0  0  0  0
    3.8013    1.6940   -0.1739 O   0  0  0  0  0  0  0  0  0  0  0  0
    4.7321    0.3518    1.9075 O   0  0  0  0  0  0  0  0  0  0  0  0
    4.6180   -0.7172   -0.6088 O   0  0  0  0  0  0  0  0  0  0  0  0
   -1.0451    0.4445   -0.7502 C   0  0  0  0  0  0  0  0  0  0  0  0
   -0.6408    1.3023   -1.8476 C   0  0  0  0  0  0  0  0  0  0  0  0
   -1.4302    1.7854   -2.6842 O   0  0  0  0  0  0  0  0  0  0  0  0
   -2.3332    0.0587   -0.4944 C   0  0  0  0  0  0  0  0  0  0  0  0
   -3.3745    0.4708   -1.2871 O   0  0  0  0  0  0  0  0  0  0  0  0
   -4.2165   -2.0526    1.3759 H   0  0  0  0  0  0  0  0  0  0  0  0
   -4.5057   -1.3598   -0.2291 H   0  0  0  0  0  0  0  0  0  0  0  0
   -4.6263   -0.2583    1.1712 H   0  0  0  0  0  0  0  0  0  0  0  0
    0.4010   -1.1731    1.7940 H   0  0  0  0  0  0  0  0  0  0  0  0
    1.3810    1.5112   -0.1753 H   0  0  0  0  0  0  0  0  0  0  0  0
    1.6457    0.0882   -1.2059 H   0  0  0  0  0  0  0  0  0  0  0  0
    5.6952    0.2009    1.7178 H   0  0  0  0  0  0  0  0  0  0  0  0
    4.1398   -1.6003   -0.5644 H   0  0  0  0  0  0  0  0  0  0  0  0
    0.4174    1.5626   -1.9795 H   0  0  0  0  0  0  0  0  0  0  0  0
   -3.3033    1.0447   -2.0643 H   0  0  0  0  0  0  0  0  0  0  0  0
  1  2  1  0
  2  3  2  0
  3  4  1  0
  4  5  2  0
  5  6  1  0
  6  7  1  0
  7  8  1  0
  8  9  2  0
  8 10  1  0
  8 11  1  0
  5 12  1  0
 12 13  1  0
 13 14  2  0
 12 15  2  0
 15 16  1  0
 15  2  1  0
  1 17  1  0
  1 18  1  0
  1 19  1  0
  4 20  1  0
  6 21  1  0
  6 22  1  0
 10 23  1  0
 11 24  1  0
 13 25  1  0
 16 26  1  0
M  END
$$$$

     RDKit          3D

 26 26  0  0  0  0  0  0  0  0999 V2000
   -3.8782   -1.8456    0.3242 C   0  0  0  0  0  0  0  0  0  0  0  0
   -2.5027   -1.2423    0.2424 C   0  0  0  0  0  0  0  0  0  0  0  0
   -1.4337   -1.9985    0.0521 N   0  0  0  0  0  0  0  0  0  0  0  0
   -0.1842   -1.5127   -0.0287 C   0  0  0  0  0  0  0  0  0  0  0  0
    0.0201   -0.1702    0.0889 C   0  0  0  0  0  0  0  0  0  0  0  0
    1.3865    0.4100    0.0058 C   0  0  0  0  0  0  0  0  0  0  0  0
    2.2904   -0.6015   -0.1937 O   0  0  0  0  0  0  0  0  0  0  0  0
    3.8742   -0.0983   -0.3075 P   0  0  0  0  0  5  0  0  0  0  0  0
    4.7053   -0.9877   -1.2146 O   0  0  0  0  0  0  0  0  0  0  0  0
    4.6472   -0.0565    1.1894 O   0  0  0  0  0  0  0  0  0  0  0  0
    3.8982    1.4531   -0.9944 O   0  0  0  0  0  0  0  0  0  0  0  0
   -1.0520    0.6877    0.2901 C   0  0  0  0  0  0  0  0  0  0  0  0
   -0.8372    2.1189    0.4159 C   0  0  0  0  0  0  0  0  0  0  0  0
   -1.7120    2.9452    0.5932 O   0  0  0  0  0  0  0  0  0  0  0  0
   -2.3191    0.1479    0.3671 C   0  0  0  0  0  0  0  0  0  0  0  0
   -3.4761    0.8650    0.5626 O   0  0  0  0  0  0  0  0  0  0  0  0
   -3.8911   -2.4237    1.2764 H   0  0  0  0  0  0  0  0  0  0  0  0
   -4.0027   -2.4922   -0.5621 H   0  0  0  0  0  0  0  0  0  0  0  0
   -4.6117   -1.0217    0.3579 H   0  0  0  0  0  0  0  0  0  0  0  0
    0.6605   -2.2090   -0.1893 H   0  0  0  0  0  0  0  0  0  0  0  0
    1.5507    0.9773    0.9463 H   0  0  0  0  0  0  0  0  0  0  0  0
    1.3784    1.1653   -0.8071 H   0  0  0  0  0  0  0  0  0  0  0  0
    5.6149    0.0538    1.0177 H   0  0  0  0  0  0  0  0  0  0  0  0
    3.2800    1.5230   -1.7613 H   0  0  0  0  0  0  0  0  0  0  0  0
    0.1831    2.4808    0.3463 H   0  0  0  0  0  0  0  0  0  0  0  0
   -3.5888    1.8321    0.6746 H   0  0  0  0  0  0  0  0  0  0  0  0
  1  2  1  0
  2  3  2  0
  3  4  1  0
  4  5  2  0
  5  6  1  0
  6  7  1  0
  7  8  1  0
  8  9  2  0
  8 10  1  0
  8 11  1  0
  5 12  1  0
 12 13  1  0
 13 14  2  0
 12 15  2  0
 15 16  1  0
 15  2  1  0
  1 17  1  0
  1 18  1  0
  1 19  1  0
  4 20  1  0
  6 21  1  0
  6 22  1  0
 10 23  1  0
 11 24  1  0
 13 25  1  0
 16 26  1  0
M  END
$$$$

     RDKit          3D

 26 26  0  0  0  0  0  0  0  0999 V2000
   -4.0440    1.3309    0.2395 C   0  0  0  0  0  0  0  0  0  0  0  0
   -2.6040    0.9675    0.0896 C   0  0  0  0  0  0  0  0  0  0  0  0
   -1.6904    1.9252   -0.0522 N   0  0  0  0  0  0  0  0  0  0  0  0
   -0.3422    1.7304   -0.1583 C   0  0  0  0  0  0  0  0  0  0  0  0
    0.1013    0.4186   -0.1162 C   0  0  0  0  0  0  0  0  0  0  0  0
    1.5033    0.0247   -0.2971 C   0  0  0  0  0  0  0  0  0  0  0  0
    2.3108    0.1307    0.8049 O   0  0  0  0  0  0  0  0  0  0  0  0
    3.8370   -0.5016    0.4601 P   0  0  0  0  0  5  0  0  0  0  0  0
    4.4675   -1.0935    1.6489 O   0  0  0  0  0  0  0  0  0  0  0  0
    3.7714   -1.6002   -0.8165 O   0  0  0  0  0  0  0  0  0  0  0  0
    4.7216    0.8641   -0.0893 O   0  0  0  0  0  0  0  0  0  0  0  0
   -0.8186   -0.5887    0.0427 C   0  0  0  0  0  0  0  0  0  0  0  0
   -0.3226   -1.9654    0.1814 C   0  0  0  0  0  0  0  0  0  0  0  0
   -1.1331   -2.9275    0.3966 O   0  0  0  0  0  0  0  0  0  0  0  0
   -2.1565   -0.3615    0.1431 C   0  0  0  0  0  0  0  0  0  0  0  0
   -3.0505   -1.3693    0.2919 O   0  0  0  0  0  0  0  0  0  0  0  0
   -4.5986    0.5099    0.7912 H   0  0  0  0  0  0  0  0  0  0  0  0
   -4.0461    2.2154    0.9694 H   0  0  0  0  0  0  0  0  0  0  0  0
   -4.5636    1.6097   -0.7000 H   0  0  0  0  0  0  0  0  0  0  0  0
    0.3410    2.5608   -0.2750 H   0  0  0  0  0  0  0  0  0  0  0  0
    1.7262   -0.6685   -1.0935 H   0  0  0  0  0  0  0  0  0  0  0  0
    1.9385    1.0765   -0.8350 H   0  0  0  0  0  0  0  0  0  0  0  0
    3.6258   -2.5543   -0.5347 H   0  0  0  0  0  0  0  0  0  0  0  0
    4.3068    1.6840    0.3788 H   0  0  0  0  0  0  0  0  0  0  0  0
    0.7254   -2.1756    0.0953 H   0  0  0  0  0  0  0  0  0  0  0  0
   -4.0062   -1.2422    0.4223 H   0  0  0  0  0  0  0  0  0  0  0  0
  1  2  1  0
  2  3  2  0
  3  4  1  0
  4  5  2  0
  5  6  1  0
  6  7  1  0
  7  8  1  0
  8  9  2  0
  8 10  1  0
  8 11  1  0
  5 12  1  0
 12 13  1  0
 13 14  2  0
 12 15  2  0
 15 16  1  0
 15  2  1  0
  1 17  1  0
  1 18  1  0
  1 19  1  0
  4 20  1  0
  6 21  1  0
  6 22  1  0
 10 23  1  0
 11 24  1  0
 13 25  1  0
 16 26  1  0
M  END
$$$$

     RDKit          3D

 26 26  0  0  0  0  0  0  0  0999 V2000
   -3.2167    1.7090    0.9874 C   0  0  0  0  0  0  0  0  0  0  0  0
   -2.0348    1.0109    0.4029 C   0  0  0  0  0  0  0  0  0  0  0  0
   -1.0151    1.7458   -0.0034 N   0  0  0  0  0  0  0  0  0  0  0  0
    0.0866    1.1839   -0.5413 C   0  0  0  0  0  0  0  0  0  0  0  0
    0.1282   -0.1745   -0.6578 C   0  0  0  0  0  0  0  0  0  0  0  0
    1.2910   -0.8476   -1.2508 C   0  0  0  0  0  0  0  0  0  0  0  0
    2.3490   -0.0889   -1.6153 O   0  0  0  0  0  0  0  0  0  0  0  0
    3.1866    0.7042   -0.4151 P   0  0  0  0  0  5  0  0  0  0  0  0
    3.5511    2.1143   -0.8191 O   0  0  0  0  0  0  0  0  0  0  0  0
    4.7113   -0.0636   -0.1478 O   0  0  0  0  0  0  0  0  0  0  0  0
    2.3214    0.6349    1.0319 O   0  0  0  0  0  0  0  0  0  0  0  0
   -0.9508   -0.9863   -0.2319 C   0  0  0  0  0  0  0  0  0  0  0  0
   -0.8468   -2.4334   -0.3990 C   0  0  0  0  0  0  0  0  0  0  0  0
   -1.7761   -3.1829   -0.0434 O   0  0  0  0  0  0  0  0  0  0  0  0
   -2.0602   -0.4014    0.3109 C   0  0  0  0  0  0  0  0  0  0  0  0
   -3.1657   -1.0551    0.7614 O   0  0  0  0  0  0  0  0  0  0  0  0
   -2.9163    2.3053    1.8598 H   0  0  0  0  0  0  0  0  0  0  0  0
   -4.0096    0.9817    1.1983 H   0  0  0  0  0  0  0  0  0  0  0  0
   -3.6451    2.4202    0.2268 H   0  0  0  0  0  0  0  0  0  0  0  0
    0.8878    1.8559   -0.8816 H   0  0  0  0  0  0  0  0  0  0  0  0
    1.5738   -1.6525   -0.5094 H   0  0  0  0  0  0  0  0  0  0  0  0
    0.9529   -1.4032   -2.1737 H   0  0  0  0  0  0  0  0  0  0  0  0
    5.1809    0.5505    0.4718 H   0  0  0  0  0  0  0  0  0  0  0  0
    2.6891   -0.0692    1.5965 H   0  0  0  0  0  0  0  0  0  0  0  0
    0.0587   -2.8495   -0.8418 H   0  0  0  0  0  0  0  0  0  0  0  0
   -3.3311   -2.0086    0.7670 H   0  0  0  0  0  0  0  0  0  0  0  0
  1  2  1  0
  2  3  2  0
  3  4  1  0
  4  5  2  0
  5  6  1  0
  6  7  1  0
  7  8  1  0
  8  9  2  0
  8 10  1  0
  8 11  1  0
  5 12  1  0
 12 13  1  0
 13 14  2  0
 12 15  2  0
 15 16  1  0
 15  2  1  0
  1 17  1  0
  1 18  1  0
  1 19  1  0
  4 20  1  0
  6 21  1  0
  6 22  1  0
 10 23  1  0
 11 24  1  0
 13 25  1  0
 16 26  1  0
M  END
$$$$

     RDKit          3D

 26 26  0  0  0  0  0  0  0  0999 V2000
   -4.1683    0.1005   -0.6716 C   0  0  0  0  0  0  0  0  0  0  0  0
   -2.6835   -0.0517   -0.5729 C   0  0  0  0  0  0  0  0  0  0  0  0
   -2.0026   -0.8730   -1.3967 N   0  0  0  0  0  0  0  0  0  0  0  0
   -0.6444   -0.9995   -1.2917 C   0  0  0  0  0  0  0  0  0  0  0  0
    0.0484   -0.2895   -0.3423 C   0  0  0  0  0  0  0  0  0  0  0  0
    1.5136   -0.3933   -0.1913 C   0  0  0  0  0  0  0  0  0  0  0  0
    2.1040   -1.2553   -1.0790 O   0  0  0  0  0  0  0  0  0  0  0  0
    3.7807   -1.2397   -0.7510 P   0  0  0  0  0  5  0  0  0  0  0  0
    4.4311   -2.5326   -1.1563 O   0  0  0  0  0  0  0  0  0  0  0  0
    4.0607   -1.0281    0.9132 O   0  0  0  0  0  0  0  0  0  0  0  0
    4.4447    0.0958   -1.5368 O   0  0  0  0  0  0  0  0  0  0  0  0
   -0.6563    0.5435    0.4907 C   0  0  0  0  0  0  0  0  0  0  0  0
    0.0307    1.3129    1.5077 C   0  0  0  0  0  0  0  0  0  0  0  0
   -0.5846    2.0842    2.2858 O   0  0  0  0  0  0  0  0  0  0  0  0
   -2.0469    0.6753    0.3858 C   0  0  0  0  0  0  0  0  0  0  0  0
   -2.7464    1.5226    1.2364 O   0  0  0  0  0  0  0  0  0  0  0  0
   -4.3840    1.1906   -0.7818 H   0  0  0  0  0  0  0  0  0  0  0  0
   -4.5464   -0.3864   -1.5901 H   0  0  0  0  0  0  0  0  0  0  0  0
   -4.6758   -0.2515    0.2516 H   0  0  0  0  0  0  0  0  0  0  0  0
   -0.1461   -1.6642   -1.9682 H   0  0  0  0  0  0  0  0  0  0  0  0
    1.7226   -0.7543    0.8364 H   0  0  0  0  0  0  0  0  0  0  0  0
    2.0039    0.6015   -0.2998 H   0  0  0  0  0  0  0  0  0  0  0  0
    3.7146   -0.1458    1.2078 H   0  0  0  0  0  0  0  0  0  0  0  0
    4.0758    0.9035   -1.0736 H   0  0  0  0  0  0  0  0  0  0  0  0
    1.1024    1.2450    1.6275 H   0  0  0  0  0  0  0  0  0  0  0  0
   -3.7480    1.5895    1.1284 H   0  0  0  0  0  0  0  0  0  0  0  0
  1  2  1  0
  2  3  2  0
  3  4  1  0
  4  5  2  0
  5  6  1  0
  6  7  1  0
  7  8  1  0
  8  9  2  0
  8 10  1  0
  8 11  1  0
  5 12  1  0
 12 13  1  0
 13 14  2  0
 12 15  2  0
 15 16  1  0
 15  2  1  0
  1 17  1  0
  1 18  1  0
  1 19  1  0
  4 20  1  0
  6 21  1  0
  6 22  1  0
 10 23  1  0
 11 24  1  0
 13 25  1  0
 16 26  1  0
M  END
$$$$

     RDKit          3D

 26 26  0  0  0  0  0  0  0  0999 V2000
   -3.9965    1.2860   -0.3212 C   0  0  0  0  0  0  0  0  0  0  0  0
   -2.5694    0.8518   -0.1745 C   0  0  0  0  0  0  0  0  0  0  0  0
   -1.5671    1.7468   -0.1268 N   0  0  0  0  0  0  0  0  0  0  0  0
   -0.2892    1.3529    0.0049 C   0  0  0  0  0  0  0  0  0  0  0  0
    0.0654    0.0309    0.0974 C   0  0  0  0  0  0  0  0  0  0  0  0
    1.4756   -0.4233    0.2413 C   0  0  0  0  0  0  0  0  0  0  0  0
    2.2912    0.7217    0.2638 O   0  0  0  0  0  0  0  0  0  0  0  0
    3.9142    0.2598    0.4269 P   0  0  0  0  0  5  0  0  0  0  0  0
    4.1662   -0.0868    1.8931 O   0  0  0  0  0  0  0  0  0  0  0  0
    4.8636    1.5965    0.0094 O   0  0  0  0  0  0  0  0  0  0  0  0
    4.2459   -1.0727   -0.5680 O   0  0  0  0  0  0  0  0  0  0  0  0
   -0.9423   -0.9116    0.0515 C   0  0  0  0  0  0  0  0  0  0  0  0
   -0.6559   -2.3439    0.1444 C   0  0  0  0  0  0  0  0  0  0  0  0
    0.4891   -2.8081    0.2680 O   0  0  0  0  0  0  0  0  0  0  0  0
   -2.2530   -0.4838   -0.0847 C   0  0  0  0  0  0  0  0  0  0  0  0
   -3.2773   -1.4490   -0.1310 O   0  0  0  0  0  0  0  0  0  0  0  0
   -4.5307    1.2379    0.6550 H   0  0  0  0  0  0  0  0  0  0  0  0
   -4.5431    0.6692   -1.0593 H   0  0  0  0  0  0  0  0  0  0  0  0
   -3.9787    2.3378   -0.7067 H   0  0  0  0  0  0  0  0  0  0  0  0
    0.5319    2.0831    0.0441 H   0  0  0  0  0  0  0  0  0  0  0  0
    1.6092   -0.9763    1.1696 H   0  0  0  0  0  0  0  0  0  0  0  0
    1.7157   -1.0508   -0.6221 H   0  0  0  0  0  0  0  0  0  0  0  0
    4.3319    2.4334    0.0869 H   0  0  0  0  0  0  0  0  0  0  0  0
    4.6295   -0.8094   -1.4381 H   0  0  0  0  0  0  0  0  0  0  0  0
   -1.4940   -3.0240    0.1019 H   0  0  0  0  0  0  0  0  0  0  0  0
   -4.2322   -1.1679   -0.2288 H   0  0  0  0  0  0  0  0  0  0  0  0
  1  2  1  0
  2  3  2  0
  3  4  1  0
  4  5  2  0
  5  6  1  0
  6  7  1  0
  7  8  1  0
  8  9  2  0
  8 10  1  0
  8 11  1  0
  5 12  1  0
 12 13  1  0
 13 14  2  0
 12 15  2  0
 15 16  1  0
 15  2  1  0
  1 17  1  0
  1 18  1  0
  1 19  1  0
  4 20  1  0
  6 21  1  0
  6 22  1  0
 10 23  1  0
 11 24  1  0
 13 25  1  0
 16 26  1  0
M  END
$$$$

     RDKit          3D

 26 26  0  0  0  0  0  0  0  0999 V2000
   -4.0030    1.5137   -0.3815 C   0  0  0  0  0  0  0  0  0  0  0  0
   -2.6013    0.9933   -0.2912 C   0  0  0  0  0  0  0  0  0  0  0  0
   -1.5795    1.5647   -0.9268 N   0  0  0  0  0  0  0  0  0  0  0  0
   -0.3299    1.0910   -0.8390 C   0  0  0  0  0  0  0  0  0  0  0  0
   -0.0149   -0.0313   -0.0769 C   0  0  0  0  0  0  0  0  0  0  0  0
    1.3785   -0.5178    0.0005 C   0  0  0  0  0  0  0  0  0  0  0  0
    2.2339    0.2878   -0.7858 O   0  0  0  0  0  0  0  0  0  0  0  0
    3.7949   -0.3470   -0.6315 P   0  0  0  0  0  5  0  0  0  0  0  0
    3.9173   -1.6871   -1.2893 O   0  0  0  0  0  0  0  0  0  0  0  0
    4.1439   -0.4760    1.0357 O   0  0  0  0  0  0  0  0  0  0  0  0
    4.8603    0.7943   -1.2865 O   0  0  0  0  0  0  0  0  0  0  0  0
   -1.0387   -0.6588    0.6001 C   0  0  0  0  0  0  0  0  0  0  0  0
   -0.7488   -1.8238    1.3932 C   0  0  0  0  0  0  0  0  0  0  0  0
    0.3988   -2.3028    1.5041 O   0  0  0  0  0  0  0  0  0  0  0  0
   -2.3301   -0.1347    0.4841 C   0  0  0  0  0  0  0  0  0  0  0  0
   -3.3878   -0.7052    1.1265 O   0  0  0  0  0  0  0  0  0  0  0  0
   -4.1542    2.3749    0.3026 H   0  0  0  0  0  0  0  0  0  0  0  0
   -4.6837    0.7148   -0.0456 H   0  0  0  0  0  0  0  0  0  0  0  0
   -4.2062    1.8708   -1.4064 H   0  0  0  0  0  0  0  0  0  0  0  0
    0.5151    1.5562   -1.3591 H   0  0  0  0  0  0  0  0  0  0  0  0
    1.5313   -1.5451   -0.3643 H   0  0  0  0  0  0  0  0  0  0  0  0
    1.7381   -0.5040    1.0674 H   0  0  0  0  0  0  0  0  0  0  0  0
    4.8846    0.1145    1.2941 H   0  0  0  0  0  0  0  0  0  0  0  0
    4.4890    1.6941   -1.0530 H   0  0  0  0  0  0  0  0  0  0  0  0
   -1.5281   -2.3282    1.9260 H   0  0  0  0  0  0  0  0  0  0  0  0
   -3.2795   -1.5082    1.6964 H   0  0  0  0  0  0  0  0  0  0  0  0
  1  2  1  0
  2  3  2  0
  3  4  1  0
  4  5  2  0
  5  6  1  0
  6  7  1  0
  7  8  1  0
  8  9  2  0
  8 10  1  0
  8 11  1  0
  5 12  1  0
 12 13  1  0
 13 14  2  0
 12 15  2  0
 15 16  1  0
 15  2  1  0
  1 17  1  0
  1 18  1  0
  1 19  1  0
  4 20  1  0
  6 21  1  0
  6 22  1  0
 10 23  1  0
 11 24  1  0
 13 25  1  0
 16 26  1  0
M  END
$$$$

     RDKit          3D

 26 26  0  0  0  0  0  0  0  0999 V2000
   -4.3580   -0.1444   -0.2681 C   0  0  0  0  0  0  0  0  0  0  0  0
   -2.8674   -0.2661   -0.1067 C   0  0  0  0  0  0  0  0  0  0  0  0
   -2.2500   -1.4625   -0.0448 N   0  0  0  0  0  0  0  0  0  0  0  0
   -0.9079   -1.6278    0.0651 C   0  0  0  0  0  0  0  0  0  0  0  0
   -0.0993   -0.4666    0.1196 C   0  0  0  0  0  0  0  0  0  0  0  0
    1.3531   -0.5671    0.3421 C   0  0  0  0  0  0  0  0  0  0  0  0
    2.0676   -0.9053   -0.8498 O   0  0  0  0  0  0  0  0  0  0  0  0
    3.6787   -0.8343   -0.4754 P   0  0  0  0  0  5  0  0  0  0  0  0
    4.5838   -1.8368   -1.1840 O   0  0  0  0  0  0  0  0  0  0  0  0
    3.8499   -1.0220    1.2065 O   0  0  0  0  0  0  0  0  0  0  0  0
    4.2912    0.7432   -0.7913 O   0  0  0  0  0  0  0  0  0  0  0  0
   -0.6884    0.7611    0.0614 C   0  0  0  0  0  0  0  0  0  0  0  0
    0.0854    1.9838    0.1561 C   0  0  0  0  0  0  0  0  0  0  0  0
    1.3364    2.0416    0.2593 O   0  0  0  0  0  0  0  0  0  0  0  0
   -2.1104    0.9245   -0.0461 C   0  0  0  0  0  0  0  0  0  0  0  0
   -2.6197    2.1388   -0.0983 O   0  0  0  0  0  0  0  0  0  0  0  0
   -4.6630   -0.3811   -1.2865 H   0  0  0  0  0  0  0  0  0  0  0  0
   -4.5424    0.9995   -0.1182 H   0  0  0  0  0  0  0  0  0  0  0  0
   -4.9337   -0.6716    0.4825 H   0  0  0  0  0  0  0  0  0  0  0  0
   -0.4583   -2.5788    0.1442 H   0  0  0  0  0  0  0  0  0  0  0  0
    1.4638   -1.6439    0.8781 H   0  0  0  0  0  0  0  0  0  0  0  0
    1.7889    0.1728    0.9346 H   0  0  0  0  0  0  0  0  0  0  0  0
    3.5086   -1.9816    1.4224 H   0  0  0  0  0  0  0  0  0  0  0  0
    5.2717    0.5859   -0.8391 H   0  0  0  0  0  0  0  0  0  0  0  0
   -0.3845    2.9711    0.1388 H   0  0  0  0  0  0  0  0  0  0  0  0
   -2.3963    3.0676   -0.1024 H   0  0  0  0  0  0  0  0  0  0  0  0
  1  2  1  0
  2  3  2  0
  3  4  1  0
  4  5  2  0
  5  6  1  0
  6  7  1  0
  7  8  1  0
  8  9  2  0
  8 10  1  0
  8 11  1  0
  5 12  1  0
 12 13  1  0
 13 14  2  0
 12 15  2  0
 15 16  1  0
 15  2  1  0
  1 17  1  0
  1 18  1  0
  1 19  1  0
  4 20  1  0
  6 21  1  0
  6 22  1  0
 10 23  1  0
 11 24  1  0
 13 25  1  0
 16 26  1  0
M  END
$$$$

     RDKit          3D

 26 26  0  0  0  0  0  0  0  0999 V2000
   -3.4937   -0.7838    1.2764 C   0  0  0  0  0  0  0  0  0  0  0  0
   -2.1793   -0.5271    0.6248 C   0  0  0  0  0  0  0  0  0  0  0  0
   -1.1839   -1.4102    0.7220 N   0  0  0  0  0  0  0  0  0  0  0  0
    0.0051   -1.1584    0.1228 C   0  0  0  0  0  0  0  0  0  0  0  0
    0.2464   -0.0106   -0.5985 C   0  0  0  0  0  0  0  0  0  0  0  0
    1.5292    0.2804   -1.2828 C   0  0  0  0  0  0  0  0  0  0  0  0
    2.4986   -0.6167   -1.1118 O   0  0  0  0  0  0  0  0  0  0  0  0
    3.1622   -0.9429    0.3340 P   0  0  0  0  0  5  0  0  0  0  0  0
    3.4032   -2.4437    0.4643 O   0  0  0  0  0  0  0  0  0  0  0  0
    2.4330   -0.4048    1.7134 O   0  0  0  0  0  0  0  0  0  0  0  0
    4.7573   -0.2919    0.3375 O   0  0  0  0  0  0  0  0  0  0  0  0
   -0.8058    0.8856   -0.6818 C   0  0  0  0  0  0  0  0  0  0  0  0
   -0.6282    2.1090   -1.4269 C   0  0  0  0  0  0  0  0  0  0  0  0
   -1.5682    2.9505   -1.5267 O   0  0  0  0  0  0  0  0  0  0  0  0
   -2.0089    0.6355   -0.0781 C   0  0  0  0  0  0  0  0  0  0  0  0
   -3.0699    1.5612   -0.1737 O   0  0  0  0  0  0  0  0  0  0  0  0
   -3.5025   -1.8315    1.6337 H   0  0  0  0  0  0  0  0  0  0  0  0
   -4.2532   -0.7348    0.4498 H   0  0  0  0  0  0  0  0  0  0  0  0
   -3.7007   -0.0394    2.0629 H   0  0  0  0  0  0  0  0  0  0  0  0
    0.7528   -1.9231    0.2288 H   0  0  0  0  0  0  0  0  0  0  0  0
    1.7908    1.3356   -1.0477 H   0  0  0  0  0  0  0  0  0  0  0  0
    1.2532    0.3276   -2.3808 H   0  0  0  0  0  0  0  0  0  0  0  0
    2.9226    0.2169    2.2688 H   0  0  0  0  0  0  0  0  0  0  0  0
    5.2731   -0.8416   -0.3096 H   0  0  0  0  0  0  0  0  0  0  0  0
    0.2900    2.3485   -1.9164 H   0  0  0  0  0  0  0  0  0  0  0  0
   -3.9234    1.3093    0.2954 H   0  0  0  0  0  0  0  0  0  0  0  0
  1  2  1  0
  2  3  2  0
  3  4  1  0
  4  5  2  0
  5  6  1  0
  6  7  1  0
  7  8  1  0
  8  9  2  0
  8 10  1  0
  8 11  1  0
  5 12  1  0
 12 13  1  0
 13 14  2  0
 12 15  2  0
 15 16  1  0
 15  2  1  0
  1 17  1  0
  1 18  1  0
  1 19  1  0
  4 20  1  0
  6 21  1  0
  6 22  1  0
 10 23  1  0
 11 24  1  0
 13 25  1  0
 16 26  1  0
M  END
$$$$

     RDKit          3D

 26 26  0  0  0  0  0  0  0  0999 V2000
   -3.9220   -0.2328    1.4998 C   0  0  0  0  0  0  0  0  0  0  0  0
   -2.4945   -0.1666    1.0016 C   0  0  0  0  0  0  0  0  0  0  0  0
   -1.4660   -0.2460    1.8389 N   0  0  0  0  0  0  0  0  0  0  0  0
   -0.2152   -0.1837    1.3614 C   0  0  0  0  0  0  0  0  0  0  0  0
    0.0584   -0.0398    0.0308 C   0  0  0  0  0  0  0  0  0  0  0  0
    1.4186    0.0284   -0.4923 C   0  0  0  0  0  0  0  0  0  0  0  0
    2.3082   -0.0773    0.5806 O   0  0  0  0  0  0  0  0  0  0  0  0
    3.9116   -0.0085    0.0730 P   0  0  0  0  0  5  0  0  0  0  0  0
    4.0212   -0.2938   -1.3890 O   0  0  0  0  0  0  0  0  0  0  0  0
    4.8565   -1.1346    0.9071 O   0  0  0  0  0  0  0  0  0  0  0  0
    4.5216    1.5238    0.4170 O   0  0  0  0  0  0  0  0  0  0  0  0
   -1.0304    0.0431   -0.8442 C   0  0  0  0  0  0  0  0  0  0  0  0
   -0.7165    0.1934   -2.2318 C   0  0  0  0  0  0  0  0  0  0  0  0
   -1.5815    0.2806   -3.1286 O   0  0  0  0  0  0  0  0  0  0  0  0
   -2.3173   -0.0181   -0.3813 C   0  0  0  0  0  0  0  0  0  0  0  0
   -3.4382    0.0536   -1.1536 O   0  0  0  0  0  0  0  0  0  0  0  0
   -3.9347   -0.7289    2.5018 H   0  0  0  0  0  0  0  0  0  0  0  0
   -4.3790    0.7725    1.5272 H   0  0  0  0  0  0  0  0  0  0  0  0
   -4.4635   -0.8263    0.7344 H   0  0  0  0  0  0  0  0  0  0  0  0
    0.6073   -0.2510    2.0666 H   0  0  0  0  0  0  0  0  0  0  0  0
    1.6306   -0.7259   -1.2770 H   0  0  0  0  0  0  0  0  0  0  0  0
    1.6384    1.0201   -0.9749 H   0  0  0  0  0  0  0  0  0  0  0  0
    4.3135   -1.5958    1.6059 H   0  0  0  0  0  0  0  0  0  0  0  0
    3.8159    2.2152    0.4506 H   0  0  0  0  0  0  0  0  0  0  0  0
    0.3235    0.2423   -2.6016 H   0  0  0  0  0  0  0  0  0  0  0  0
   -3.4664    0.1562   -2.1223 H   0  0  0  0  0  0  0  0  0  0  0  0
  1  2  1  0
  2  3  2  0
  3  4  1  0
  4  5  2  0
  5  6  1  0
  6  7  1  0
  7  8  1  0
  8  9  2  0
  8 10  1  0
  8 11  1  0
  5 12  1  0
 12 13  1  0
 13 14  2  0
 12 15  2  0
 15 16  1  0
 15  2  1  0
  1 17  1  0
  1 18  1  0
  1 19  1  0
  4 20  1  0
  6 21  1  0
  6 22  1  0
 10 23  1  0
 11 24  1  0
 13 25  1  0
 16 26  1  0
M  END
$$$$

     RDKit          3D

 26 26  0  0  0  0  0  0  0  0999 V2000
   -3.9962    1.2396    0.3022 C   0  0  0  0  0  0  0  0  0  0  0  0
   -2.5683    0.8000    0.2109 C   0  0  0  0  0  0  0  0  0  0  0  0
   -1.6039    1.6817    0.4616 N   0  0  0  0  0  0  0  0  0  0  0  0
   -0.3196    1.3221    0.3890 C   0  0  0  0  0  0  0  0  0  0  0  0
    0.0266    0.0294    0.0524 C   0  0  0  0  0  0  0  0  0  0  0  0
    1.4619   -0.3815   -0.0311 C   0  0  0  0  0  0  0  0  0  0  0  0
    2.2375    0.7084    0.2714 O   0  0  0  0  0  0  0  0  0  0  0  0
    3.8801    0.4080    0.2208 P   0  0  0  0  0  5  0  0  0  0  0  0
    4.4257    0.0019    1.5839 O   0  0  0  0  0  0  0  0  0  0  0  0
    4.6679    1.8347   -0.2261 O   0  0  0  0  0  0  0  0  0  0  0  0
    4.2478   -0.8555   -0.8460 O   0  0  0  0  0  0  0  0  0  0  0  0
   -0.9540   -0.9205   -0.2167 C   0  0  0  0  0  0  0  0  0  0  0  0
   -0.5220   -2.2537   -0.5625 C   0  0  0  0  0  0  0  0  0  0  0  0
   -1.3639   -3.1464   -0.8141 O   0  0  0  0  0  0  0  0  0  0  0  0
   -2.2509   -0.5157   -0.1323 C   0  0  0  0  0  0  0  0  0  0  0  0
   -3.2902   -1.3537   -0.3728 O   0  0  0  0  0  0  0  0  0  0  0  0
   -4.5591    0.6155   -0.4149 H   0  0  0  0  0  0  0  0  0  0  0  0
   -4.0828    2.3104   -0.0233 H   0  0  0  0  0  0  0  0  0  0  0  0
   -4.3738    1.1989    1.3303 H   0  0  0  0  0  0  0  0  0  0  0  0
    0.4505    2.0461    0.5945 H   0  0  0  0  0  0  0  0  0  0  0  0
    1.6776   -1.2704    0.5892 H   0  0  0  0  0  0  0  0  0  0  0  0
    1.6623   -0.6554   -1.0901 H   0  0  0  0  0  0  0  0  0  0  0  0
    4.0226    2.5875   -0.3835 H   0  0  0  0  0  0  0  0  0  0  0  0
    3.8914   -0.6564   -1.7405 H   0  0  0  0  0  0  0  0  0  0  0  0
    0.5561   -2.4861   -0.6051 H   0  0  0  0  0  0  0  0  0  0  0  0
   -3.3235   -2.2890   -0.6213 H   0  0  0  0  0  0  0  0  0  0  0  0
  1  2  1  0
  2  3  2  0
  3  4  1  0
  4  5  2  0
  5  6  1  0
  6  7  1  0
  7  8  1  0
  8  9  2  0
  8 10  1  0
  8 11  1  0
  5 12  1  0
 12 13  1  0
 13 14  2  0
 12 15  2  0
 15 16  1  0
 15  2  1  0
  1 17  1  0
  1 18  1  0
  1 19  1  0
  4 20  1  0
  6 21  1  0
  6 22  1  0
 10 23  1  0
 11 24  1  0
 13 25  1  0
 16 26  1  0
M  END
$$$$

     RDKit          3D

 26 26  0  0  0  0  0  0  0  0999 V2000
    4.0933   -0.0051    1.1052 C   0  0  0  0  0  0  0  0  0  0  0  0
    2.6134   -0.0395    0.8169 C   0  0  0  0  0  0  0  0  0  0  0  0
    1.7158   -0.0057    1.8055 N   0  0  0  0  0  0  0  0  0  0  0  0
    0.4106   -0.0388    1.4919 C   0  0  0  0  0  0  0  0  0  0  0  0
   -0.0130   -0.1059    0.1903 C   0  0  0  0  0  0  0  0  0  0  0  0
   -1.4546   -0.1431   -0.1709 C   0  0  0  0  0  0  0  0  0  0  0  0
   -2.1838   -0.0981    1.0075 O   0  0  0  0  0  0  0  0  0  0  0  0
   -3.8472   -0.1346    0.7291 P   0  0  0  0  0  5  0  0  0  0  0  0
   -4.4915   -1.3222    1.4411 O   0  0  0  0  0  0  0  0  0  0  0  0
   -4.5906    1.2978    1.2907 O   0  0  0  0  0  0  0  0  0  0  0  0
   -4.1578   -0.3174   -0.9267 O   0  0  0  0  0  0  0  0  0  0  0  0
    0.8969   -0.1426   -0.8650 C   0  0  0  0  0  0  0  0  0  0  0  0
    0.4348   -0.2131   -2.2282 C   0  0  0  0  0  0  0  0  0  0  0  0
    1.1977   -0.2478   -3.1969 O   0  0  0  0  0  0  0  0  0  0  0  0
    2.2355   -0.1079   -0.5278 C   0  0  0  0  0  0  0  0  0  0  0  0
    3.2421   -0.1369   -1.4487 O   0  0  0  0  0  0  0  0  0  0  0  0
    4.5869   -0.6866    0.4025 H   0  0  0  0  0  0  0  0  0  0  0  0
    4.2114   -0.2755    2.1654 H   0  0  0  0  0  0  0  0  0  0  0  0
    4.4497    1.0382    0.9817 H   0  0  0  0  0  0  0  0  0  0  0  0
   -0.3309   -0.0118    2.2914 H   0  0  0  0  0  0  0  0  0  0  0  0
   -1.6226   -1.1096   -0.6980 H   0  0  0  0  0  0  0  0  0  0  0  0
   -1.7409    0.7286   -0.7970 H   0  0  0  0  0  0  0  0  0  0  0  0
   -3.8438    1.9689    1.3277 H   0  0  0  0  0  0  0  0  0  0  0  0
   -4.4314    0.5280   -1.3509 H   0  0  0  0  0  0  0  0  0  0  0  0
   -0.6217   -0.2371   -2.4235 H   0  0  0  0  0  0  0  0  0  0  0  0
    3.2418   -0.1822   -2.4134 H   0  0  0  0  0  0  0  0  0  0  0  0
  1  2  1  0
  2  3  2  0
  3  4  1  0
  4  5  2  0
  5  6  1  0
  6  7  1  0
  7  8  1  0
  8  9  2  0
  8 10  1  0
  8 11  1  0
  5 12  1  0
 12 13  1  0
 13 14  2  0
 12 15  2  0
 15 16  1  0
 15  2  1  0
  1 17  1  0
  1 18  1  0
  1 19  1  0
  4 20  1  0
  6 21  1  0
  6 22  1  0
 10 23  1  0
 11 24  1  0
 13 25  1  0
 16 26  1  0
M  END
$$$$

     RDKit          3D

 26 26  0  0  0  0  0  0  0  0999 V2000
   -3.8988   -1.5094   -0.5084 C   0  0  0  0  0  0  0  0  0  0  0  0
   -2.5415   -0.9518   -0.2706 C   0  0  0  0  0  0  0  0  0  0  0  0
   -1.5003   -1.7763   -0.2571 N   0  0  0  0  0  0  0  0  0  0  0  0
   -0.2607   -1.3409   -0.0499 C   0  0  0  0  0  0  0  0  0  0  0  0
   -0.0051    0.0074    0.1625 C   0  0  0  0  0  0  0  0  0  0  0  0
    1.3801    0.4564    0.3847 C   0  0  0  0  0  0  0  0  0  0  0  0
    2.2499   -0.6554    0.3444 O   0  0  0  0  0  0  0  0  0  0  0  0
    3.8374   -0.1138    0.6025 P   0  0  0  0  0  5  0  0  0  0  0  0
    3.7542    1.0129    1.6078 O   0  0  0  0  0  0  0  0  0  0  0  0
    4.5108    0.4990   -0.8107 O   0  0  0  0  0  0  0  0  0  0  0  0
    4.8214   -1.3061    1.2459 O   0  0  0  0  0  0  0  0  0  0  0  0
   -1.0765    0.8991    0.1546 C   0  0  0  0  0  0  0  0  0  0  0  0
   -0.8625    2.3170    0.3739 C   0  0  0  0  0  0  0  0  0  0  0  0
    0.2966    2.7900    0.5775 O   0  0  0  0  0  0  0  0  0  0  0  0
   -2.3496    0.4045   -0.0646 C   0  0  0  0  0  0  0  0  0  0  0  0
   -3.4758    1.1887   -0.0937 O   0  0  0  0  0  0  0  0  0  0  0  0
   -4.5990   -0.6589   -0.6399 H   0  0  0  0  0  0  0  0  0  0  0  0
   -3.8474   -2.0976   -1.4501 H   0  0  0  0  0  0  0  0  0  0  0  0
   -4.2264   -2.1807    0.3028 H   0  0  0  0  0  0  0  0  0  0  0  0
    0.6031   -2.0113   -0.0369 H   0  0  0  0  0  0  0  0  0  0  0  0
    1.5110    0.9579    1.3555 H   0  0  0  0  0  0  0  0  0  0  0  0
    1.6486    1.1873   -0.4069 H   0  0  0  0  0  0  0  0  0  0  0  0
    4.9360   -0.1780   -1.3620 H   0  0  0  0  0  0  0  0  0  0  0  0
    4.3245   -2.0874    1.5883 H   0  0  0  0  0  0  0  0  0  0  0  0
   -1.7178    2.9770    0.3614 H   0  0  0  0  0  0  0  0  0  0  0  0
   -3.5122    2.1703    0.0343 H   0  0  0  0  0  0  0  0  0  0  0  0
  1  2  1  0
  2  3  2  0
  3  4  1  0
  4  5  2  0
  5  6  1  0
  6  7  1  0
  7  8  1  0
  8  9  2  0
  8 10  1  0
  8 11  1  0
  5 12  1  0
 12 13  1  0
 13 14  2  0
 12 15  2  0
 15 16  1  0
 15  2  1  0
  1 17  1  0
  1 18  1  0
  1 19  1  0
  4 20  1  0
  6 21  1  0
  6 22  1  0
 10 23  1  0
 11 24  1  0
 13 25  1  0
 16 26  1  0
M  END
$$$$

     RDKit          3D

 26 26  0  0  0  0  0  0  0  0999 V2000
   -3.2659    1.8786    0.3012 C   0  0  0  0  0  0  0  0  0  0  0  0
   -2.0403    1.0751   -0.0295 C   0  0  0  0  0  0  0  0  0  0  0  0
   -0.9285    1.6226   -0.5011 N   0  0  0  0  0  0  0  0  0  0  0  0
    0.1815    0.8931   -0.7995 C   0  0  0  0  0  0  0  0  0  0  0  0
    0.1595   -0.4705   -0.6059 C   0  0  0  0  0  0  0  0  0  0  0  0
    1.3248   -1.3252   -0.9231 C   0  0  0  0  0  0  0  0  0  0  0  0
    2.4557   -0.6881   -1.3562 O   0  0  0  0  0  0  0  0  0  0  0  0
    3.1870    0.3074   -0.2103 P   0  0  0  0  0  5  0  0  0  0  0  0
    2.2690    0.5154    0.9686 O   0  0  0  0  0  0  0  0  0  0  0  0
    3.6838    1.7200   -0.9549 O   0  0  0  0  0  0  0  0  0  0  0  0
    4.6398   -0.4482    0.3370 O   0  0  0  0  0  0  0  0  0  0  0  0
   -0.9975   -1.0554   -0.1152 C   0  0  0  0  0  0  0  0  0  0  0  0
   -1.1316   -2.4783    0.1023 C   0  0  0  0  0  0  0  0  0  0  0  0
   -0.1910   -3.2518   -0.1389 O   0  0  0  0  0  0  0  0  0  0  0  0
   -2.1246   -0.2763    0.1826 C   0  0  0  0  0  0  0  0  0  0  0  0
   -3.2668   -0.8915    0.6734 O   0  0  0  0  0  0  0  0  0  0  0  0
   -3.6156    1.6230    1.3230 H   0  0  0  0  0  0  0  0  0  0  0  0
   -2.9461    2.9524    0.2384 H   0  0  0  0  0  0  0  0  0  0  0  0
   -4.0301    1.6950   -0.4777 H   0  0  0  0  0  0  0  0  0  0  0  0
    1.0417    1.4282   -1.2111 H   0  0  0  0  0  0  0  0  0  0  0  0
    1.0492   -2.0625   -1.7095 H   0  0  0  0  0  0  0  0  0  0  0  0
    1.5860   -1.9614   -0.0092 H   0  0  0  0  0  0  0  0  0  0  0  0
    4.1353    2.3449   -0.3477 H   0  0  0  0  0  0  0  0  0  0  0  0
    4.9409    0.0856    1.1351 H   0  0  0  0  0  0  0  0  0  0  0  0
   -2.0450   -2.9173    0.4788 H   0  0  0  0  0  0  0  0  0  0  0  0
   -4.0710   -0.3148    0.8827 H   0  0  0  0  0  0  0  0  0  0  0  0
  1  2  1  0
  2  3  2  0
  3  4  1  0
  4  5  2  0
  5  6  1  0
  6  7  1  0
  7  8  1  0
  8  9  2  0
  8 10  1  0
  8 11  1  0
  5 12  1  0
 12 13  1  0
 13 14  2  0
 12 15  2  0
 15 16  1  0
 15  2  1  0
  1 17  1  0
  1 18  1  0
  1 19  1  0
  4 20  1  0
  6 21  1  0
  6 22  1  0
 10 23  1  0
 11 24  1  0
 13 25  1  0
 16 26  1  0
M  END
$$$$

     RDKit          3D

 26 26  0  0  0  0  0  0  0  0999 V2000
   -4.0556    0.2552    1.4254 C   0  0  0  0  0  0  0  0  0  0  0  0
   -2.6458    0.1614    0.9342 C   0  0  0  0  0  0  0  0  0  0  0  0
   -1.6712    0.8197    1.5771 N   0  0  0  0  0  0  0  0  0  0  0  0
   -0.3905    0.7923    1.2093 C   0  0  0  0  0  0  0  0  0  0  0  0
   -0.0118    0.0469    0.0989 C   0  0  0  0  0  0  0  0  0  0  0  0
    1.4228    0.0076   -0.3236 C   0  0  0  0  0  0  0  0  0  0  0  0
    2.2053    0.7880    0.5334 O   0  0  0  0  0  0  0  0  0  0  0  0
    3.7995    0.6812   -0.0217 P   0  0  0  0  0  5  0  0  0  0  0  0
    3.7987    0.4669   -1.5280 O   0  0  0  0  0  0  0  0  0  0  0  0
    4.5813   -0.6693    0.6713 O   0  0  0  0  0  0  0  0  0  0  0  0
    4.6592    2.0764    0.3790 O   0  0  0  0  0  0  0  0  0  0  0  0
   -0.9827   -0.6360   -0.5786 C   0  0  0  0  0  0  0  0  0  0  0  0
   -0.6447   -1.4270   -1.7412 C   0  0  0  0  0  0  0  0  0  0  0  0
    0.5469   -1.4819   -2.1236 O   0  0  0  0  0  0  0  0  0  0  0  0
   -2.3236   -0.5867   -0.1654 C   0  0  0  0  0  0  0  0  0  0  0  0
   -3.3025   -1.2785   -0.8529 O   0  0  0  0  0  0  0  0  0  0  0  0
   -4.4193   -0.7390    1.7706 H   0  0  0  0  0  0  0  0  0  0  0  0
   -4.1348    1.0150    2.2126 H   0  0  0  0  0  0  0  0  0  0  0  0
   -4.7409    0.5864    0.5997 H   0  0  0  0  0  0  0  0  0  0  0  0
    0.3933    1.3305    1.7383 H   0  0  0  0  0  0  0  0  0  0  0  0
    1.5766    0.4354   -1.3330 H   0  0  0  0  0  0  0  0  0  0  0  0
    1.8639   -0.9991   -0.2850 H   0  0  0  0  0  0  0  0  0  0  0  0
    5.2455   -1.0416    0.0456 H   0  0  0  0  0  0  0  0  0  0  0  0
    4.9263    2.5704   -0.4425 H   0  0  0  0  0  0  0  0  0  0  0  0
   -1.4444   -1.9589   -2.2579 H   0  0  0  0  0  0  0  0  0  0  0  0
   -4.2518   -1.2153   -0.5219 H   0  0  0  0  0  0  0  0  0  0  0  0
  1  2  1  0
  2  3  2  0
  3  4  1  0
  4  5  2  0
  5  6  1  0
  6  7  1  0
  7  8  1  0
  8  9  2  0
  8 10  1  0
  8 11  1  0
  5 12  1  0
 12 13  1  0
 13 14  2  0
 12 15  2  0
 15 16  1  0
 15  2  1  0
  1 17  1  0
  1 18  1  0
  1 19  1  0
  4 20  1  0
  6 21  1  0
  6 22  1  0
 10 23  1  0
 11 24  1  0
 13 25  1  0
 16 26  1  0
M  END
$$$$

     RDKit          3D

 26 26  0  0  0  0  0  0  0  0999 V2000
    4.0921    0.7236    0.5907 C   0  0  0  0  0  0  0  0  0  0  0  0
    2.6576    0.4173    0.4993 C   0  0  0  0  0  0  0  0  0  0  0  0
    1.8615    0.0547    1.5184 N   0  0  0  0  0  0  0  0  0  0  0  0
    0.5386   -0.2024    1.3751 C   0  0  0  0  0  0  0  0  0  0  0  0
   -0.1036   -0.0969    0.1170 C   0  0  0  0  0  0  0  0  0  0  0  0
   -1.5197   -0.2754    0.0793 C   0  0  0  0  0  0  0  0  0  0  0  0
   -2.1458   -1.2024   -0.7147 O   0  0  0  0  0  0  0  0  0  0  0  0
   -3.8206   -1.0327   -0.3616 P   0  0  0  0  0  5  0  0  0  0  0  0
   -4.6885   -1.1023   -1.5592 O   0  0  0  0  0  0  0  0  0  0  0  0
   -3.9905    0.4426    0.4995 O   0  0  0  0  0  0  0  0  0  0  0  0
   -4.2576   -2.3581    0.6735 O   0  0  0  0  0  0  0  0  0  0  0  0
    0.6926    0.2716   -0.9213 C   0  0  0  0  0  0  0  0  0  0  0  0
    0.1212    0.4241   -2.2507 C   0  0  0  0  0  0  0  0  0  0  0  0
   -1.0355    0.2505   -2.5379 O   0  0  0  0  0  0  0  0  0  0  0  0
    2.0254    0.5192   -0.7563 C   0  0  0  0  0  0  0  0  0  0  0  0
    2.8352    0.8748   -1.8368 O   0  0  0  0  0  0  0  0  0  0  0  0
    4.3673    1.7022    0.0922 H   0  0  0  0  0  0  0  0  0  0  0  0
    4.3660    0.8909    1.6472 H   0  0  0  0  0  0  0  0  0  0  0  0
    4.7010   -0.1328    0.2388 H   0  0  0  0  0  0  0  0  0  0  0  0
    0.0012   -0.4695    2.2536 H   0  0  0  0  0  0  0  0  0  0  0  0
   -1.8259   -0.7312    1.1574 H   0  0  0  0  0  0  0  0  0  0  0  0
   -2.0696    0.6916    0.1735 H   0  0  0  0  0  0  0  0  0  0  0  0
   -3.9730    1.2240   -0.1048 H   0  0  0  0  0  0  0  0  0  0  0  0
   -3.4523   -2.6198    1.2275 H   0  0  0  0  0  0  0  0  0  0  0  0
    0.8213    0.7209   -3.0412 H   0  0  0  0  0  0  0  0  0  0  0  0
    3.8014    1.0154   -1.6820 H   0  0  0  0  0  0  0  0  0  0  0  0
  1  2  1  0
  2  3  2  0
  3  4  1  0
  4  5  2  0
  5  6  1  0
  6  7  1  0
  7  8  1  0
  8  9  2  0
  8 10  1  0
  8 11  1  0
  5 12  1  0
 12 13  1  0
 13 14  2  0
 12 15  2  0
 15 16  1  0
 15  2  1  0
  1 17  1  0
  1 18  1  0
  1 19  1  0
  4 20  1  0
  6 21  1  0
  6 22  1  0
 10 23  1  0
 11 24  1  0
 13 25  1  0
 16 26  1  0
M  END
$$$$

     RDKit          3D

 26 26  0  0  0  0  0  0  0  0999 V2000
   -4.2319    0.7621   -0.4506 C   0  0  0  0  0  0  0  0  0  0  0  0
   -2.7616    0.5691   -0.3880 C   0  0  0  0  0  0  0  0  0  0  0  0
   -1.9173    1.6047   -0.3965 N   0  0  0  0  0  0  0  0  0  0  0  0
   -0.5906    1.4373   -0.3402 C   0  0  0  0  0  0  0  0  0  0  0  0
    0.0005    0.1819   -0.2692 C   0  0  0  0  0  0  0  0  0  0  0  0
    1.4543    0.0058   -0.1960 C   0  0  0  0  0  0  0  0  0  0  0  0
    2.1374    1.2288   -0.2318 O   0  0  0  0  0  0  0  0  0  0  0  0
    3.7976    0.8288   -0.1376 P   0  0  0  0  0  5  0  0  0  0  0  0
    4.0823   -0.0203   -1.3779 O   0  0  0  0  0  0  0  0  0  0  0  0
    4.0887   -0.1164    1.2418 O   0  0  0  0  0  0  0  0  0  0  0  0
    4.7734    2.1726   -0.1175 O   0  0  0  0  0  0  0  0  0  0  0  0
   -0.8294   -0.9165   -0.2582 C   0  0  0  0  0  0  0  0  0  0  0  0
   -0.2787   -2.2736   -0.1922 C   0  0  0  0  0  0  0  0  0  0  0  0
    0.9546   -2.5178   -0.1392 O   0  0  0  0  0  0  0  0  0  0  0  0
   -2.1998   -0.7100   -0.3175 C   0  0  0  0  0  0  0  0  0  0  0  0
   -3.0893   -1.7389   -0.3109 O   0  0  0  0  0  0  0  0  0  0  0  0
   -4.6981   -0.1820   -0.8593 H   0  0  0  0  0  0  0  0  0  0  0  0
   -4.6886    0.9514    0.5280 H   0  0  0  0  0  0  0  0  0  0  0  0
   -4.4927    1.5655   -1.1934 H   0  0  0  0  0  0  0  0  0  0  0  0
    0.0501    2.3099   -0.3499 H   0  0  0  0  0  0  0  0  0  0  0  0
    1.7935   -0.5794   -1.0665 H   0  0  0  0  0  0  0  0  0  0  0  0
    1.7269   -0.5705    0.7172 H   0  0  0  0  0  0  0  0  0  0  0  0
    4.1404   -1.0711    1.0265 H   0  0  0  0  0  0  0  0  0  0  0  0
    4.5208    2.8995   -0.7064 H   0  0  0  0  0  0  0  0  0  0  0  0
   -0.9348   -3.1322   -0.1867 H   0  0  0  0  0  0  0  0  0  0  0  0
   -2.8077   -2.6884   -0.2632 H   0  0  0  0  0  0  0  0  0  0  0  0
  1  2  1  0
  2  3  2  0
  3  4  1  0
  4  5  2  0
  5  6  1  0
  6  7  1  0
  7  8  1  0
  8  9  2  0
  8 10  1  0
  8 11  1  0
  5 12  1  0
 12 13  1  0
 13 14  2  0
 12 15  2  0
 15 16  1  0
 15  2  1  0
  1 17  1  0
  1 18  1  0
  1 19  1  0
  4 20  1  0
  6 21  1  0
  6 22  1  0
 10 23  1  0
 11 24  1  0
 13 25  1  0
 16 26  1  0
M  END
$$$$

     RDKit          3D

 26 26  0  0  0  0  0  0  0  0999 V2000
   -3.7397    1.8517    0.6484 C   0  0  0  0  0  0  0  0  0  0  0  0
   -2.4156    1.2077    0.4176 C   0  0  0  0  0  0  0  0  0  0  0  0
   -1.2793    1.7848    0.8263 N   0  0  0  0  0  0  0  0  0  0  0  0
   -0.0742    1.2264    0.6313 C   0  0  0  0  0  0  0  0  0  0  0  0
    0.0206   -0.0003   -0.0192 C   0  0  0  0  0  0  0  0  0  0  0  0
    1.3814   -0.5723   -0.1997 C   0  0  0  0  0  0  0  0  0  0  0  0
    2.3584    0.2734    0.3297 O   0  0  0  0  0  0  0  0  0  0  0  0
    3.8684   -0.4158    0.1007 P   0  0  0  0  0  5  0  0  0  0  0  0
    3.7849   -1.4057   -1.0377 O   0  0  0  0  0  0  0  0  0  0  0  0
    4.3489   -1.1913    1.5405 O   0  0  0  0  0  0  0  0  0  0  0  0
    5.0244    0.7457   -0.2559 O   0  0  0  0  0  0  0  0  0  0  0  0
   -1.1245   -0.6508   -0.4684 C   0  0  0  0  0  0  0  0  0  0  0  0
   -1.0248   -1.9329   -1.1522 C   0  0  0  0  0  0  0  0  0  0  0  0
    0.1181   -2.4498   -1.3320 O   0  0  0  0  0  0  0  0  0  0  0  0
   -2.3316   -0.0137   -0.2311 C   0  0  0  0  0  0  0  0  0  0  0  0
   -3.5161   -0.5636   -0.6294 O   0  0  0  0  0  0  0  0  0  0  0  0
   -4.1159    1.6995    1.6716 H   0  0  0  0  0  0  0  0  0  0  0  0
   -3.6512    2.9286    0.3812 H   0  0  0  0  0  0  0  0  0  0  0  0
   -4.4749    1.4101   -0.0509 H   0  0  0  0  0  0  0  0  0  0  0  0
    0.8389    1.6960    0.9628 H   0  0  0  0  0  0  0  0  0  0  0  0
    1.6157   -0.6795   -1.2742 H   0  0  0  0  0  0  0  0  0  0  0  0
    1.4498   -1.5557    0.3089 H   0  0  0  0  0  0  0  0  0  0  0  0
    3.7175   -1.0048    2.2716 H   0  0  0  0  0  0  0  0  0  0  0  0
    4.6968    1.4639   -0.8478 H   0  0  0  0  0  0  0  0  0  0  0  0
   -1.9199   -2.4139   -1.4899 H   0  0  0  0  0  0  0  0  0  0  0  0
   -3.5560   -1.4380   -1.1023 H   0  0  0  0  0  0  0  0  0  0  0  0
  1  2  1  0
  2  3  2  0
  3  4  1  0
  4  5  2  0
  5  6  1  0
  6  7  1  0
  7  8  1  0
  8  9  2  0
  8 10  1  0
  8 11  1  0
  5 12  1  0
 12 13  1  0
 13 14  2  0
 12 15  2  0
 15 16  1  0
 15  2  1  0
  1 17  1  0
  1 18  1  0
  1 19  1  0
  4 20  1  0
  6 21  1  0
  6 22  1  0
 10 23  1  0
 11 24  1  0
 13 25  1  0
 16 26  1  0
M  END
$$$$

     RDKit          3D

 26 26  0  0  0  0  0  0  0  0999 V2000
   -4.1961   -0.7298   -0.3680 C   0  0  0  0  0  0  0  0  0  0  0  0
   -2.7380   -0.4968   -0.2873 C   0  0  0  0  0  0  0  0  0  0  0  0
   -1.9056   -1.4046   -0.8109 N   0  0  0  0  0  0  0  0  0  0  0  0
   -0.5697   -1.2497   -0.7690 C   0  0  0  0  0  0  0  0  0  0  0  0
   -0.0287   -0.1254   -0.1711 C   0  0  0  0  0  0  0  0  0  0  0  0
    1.4290    0.0838   -0.1025 C   0  0  0  0  0  0  0  0  0  0  0  0
    2.1377   -0.9623   -0.6988 O   0  0  0  0  0  0  0  0  0  0  0  0
    3.7891   -0.5417   -0.5203 P   0  0  0  0  0  5  0  0  0  0  0  0
    4.2470    0.2756   -1.7099 O   0  0  0  0  0  0  0  0  0  0  0  0
    4.7547   -1.8895   -0.3413 O   0  0  0  0  0  0  0  0  0  0  0  0
    3.9789    0.4013    0.8935 O   0  0  0  0  0  0  0  0  0  0  0  0
   -0.8684    0.8215    0.3740 C   0  0  0  0  0  0  0  0  0  0  0  0
   -0.3386    2.0266    1.0159 C   0  0  0  0  0  0  0  0  0  0  0  0
    0.9027    2.2196    1.0814 O   0  0  0  0  0  0  0  0  0  0  0  0
   -2.2620    0.6679    0.3348 C   0  0  0  0  0  0  0  0  0  0  0  0
   -3.1706    1.5609    0.8527 O   0  0  0  0  0  0  0  0  0  0  0  0
   -4.7945    0.1525   -0.1073 H   0  0  0  0  0  0  0  0  0  0  0  0
   -4.5043   -1.0946   -1.3813 H   0  0  0  0  0  0  0  0  0  0  0  0
   -4.4407   -1.5256    0.3768 H   0  0  0  0  0  0  0  0  0  0  0  0
    0.1349   -1.9568   -1.1786 H   0  0  0  0  0  0  0  0  0  0  0  0
    1.6955    1.0009   -0.6560 H   0  0  0  0  0  0  0  0  0  0  0  0
    1.8286    0.1656    0.9218 H   0  0  0  0  0  0  0  0  0  0  0  0
    4.9591   -2.3652   -1.1725 H   0  0  0  0  0  0  0  0  0  0  0  0
    3.8595   -0.1722    1.6946 H   0  0  0  0  0  0  0  0  0  0  0  0
   -1.0169    2.7440    1.4301 H   0  0  0  0  0  0  0  0  0  0  0  0
   -2.8824    2.3938    1.2993 H   0  0  0  0  0  0  0  0  0  0  0  0
  1  2  1  0
  2  3  2  0
  3  4  1  0
  4  5  2  0
  5  6  1  0
  6  7  1  0
  7  8  1  0
  8  9  2  0
  8 10  1  0
  8 11  1  0
  5 12  1  0
 12 13  1  0
 13 14  2  0
 12 15  2  0
 15 16  1  0
 15  2  1  0
  1 17  1  0
  1 18  1  0
  1 19  1  0
  4 20  1  0
  6 21  1  0
  6 22  1  0
 10 23  1  0
 11 24  1  0
 13 25  1  0
 16 26  1  0
M  END
$$$$

     RDKit          3D

 26 26  0  0  0  0  0  0  0  0999 V2000
   -4.0594   -0.1624    1.1808 C   0  0  0  0  0  0  0  0  0  0  0  0
   -2.6090   -0.1496    0.8403 C   0  0  0  0  0  0  0  0  0  0  0  0
   -1.6492   -0.3843    1.7500 N   0  0  0  0  0  0  0  0  0  0  0  0
   -0.3385   -0.3695    1.4270 C   0  0  0  0  0  0  0  0  0  0  0  0
    0.1039   -0.1141    0.1487 C   0  0  0  0  0  0  0  0  0  0  0  0
    1.5687   -0.1058   -0.1739 C   0  0  0  0  0  0  0  0  0  0  0  0
    2.3366   -0.3745    0.9326 O   0  0  0  0  0  0  0  0  0  0  0  0
    3.9579   -0.3610    0.5552 P   0  0  0  0  0  5  0  0  0  0  0  0
    4.7170   -1.1756    1.5792 O   0  0  0  0  0  0  0  0  0  0  0  0
    4.2627   -1.0372   -0.9767 O   0  0  0  0  0  0  0  0  0  0  0  0
    4.5918    1.2232    0.5044 O   0  0  0  0  0  0  0  0  0  0  0  0
   -0.8496    0.1309   -0.8105 C   0  0  0  0  0  0  0  0  0  0  0  0
   -0.4665    0.4098   -2.1870 C   0  0  0  0  0  0  0  0  0  0  0  0
   -1.3030    0.6350   -3.0769 O   0  0  0  0  0  0  0  0  0  0  0  0
   -2.2052    0.1105   -0.4527 C   0  0  0  0  0  0  0  0  0  0  0  0
   -3.1489    0.3581   -1.4265 O   0  0  0  0  0  0  0  0  0  0  0  0
   -4.4782    0.8827    1.2000 H   0  0  0  0  0  0  0  0  0  0  0  0
   -4.6647   -0.7404    0.4729 H   0  0  0  0  0  0  0  0  0  0  0  0
   -4.1932   -0.5427    2.2157 H   0  0  0  0  0  0  0  0  0  0  0  0
    0.4202   -0.5641    2.1889 H   0  0  0  0  0  0  0  0  0  0  0  0
    1.8413    0.9316   -0.5208 H   0  0  0  0  0  0  0  0  0  0  0  0
    1.7470   -0.7658   -1.0290 H   0  0  0  0  0  0  0  0  0  0  0  0
    4.0098   -0.4172   -1.7011 H   0  0  0  0  0  0  0  0  0  0  0  0
    3.9485    1.8193    0.9641 H   0  0  0  0  0  0  0  0  0  0  0  0
    0.5845    0.4191   -2.4342 H   0  0  0  0  0  0  0  0  0  0  0  0
   -4.1245    0.3438   -1.1705 H   0  0  0  0  0  0  0  0  0  0  0  0
  1  2  1  0
  2  3  2  0
  3  4  1  0
  4  5  2  0
  5  6  1  0
  6  7  1  0
  7  8  1  0
  8  9  2  0
  8 10  1  0
  8 11  1  0
  5 12  1  0
 12 13  1  0
 13 14  2  0
 12 15  2  0
 15 16  1  0
 15  2  1  0
  1 17  1  0
  1 18  1  0
  1 19  1  0
  4 20  1  0
  6 21  1  0
  6 22  1  0
 10 23  1  0
 11 24  1  0
 13 25  1  0
 16 26  1  0
M  END
$$$$

     RDKit          3D

 26 26  0  0  0  0  0  0  0  0999 V2000
   -4.0452    0.8688    0.4269 C   0  0  0  0  0  0  0  0  0  0  0  0
   -2.5867    0.6019    0.2960 C   0  0  0  0  0  0  0  0  0  0  0  0
   -1.6615    1.4275    0.8427 N   0  0  0  0  0  0  0  0  0  0  0  0
   -0.3597    1.1279    0.6870 C   0  0  0  0  0  0  0  0  0  0  0  0
    0.0482   -0.0075   -0.0209 C   0  0  0  0  0  0  0  0  0  0  0  0
    1.4707   -0.2876   -0.1499 C   0  0  0  0  0  0  0  0  0  0  0  0
    2.1839    0.7428    0.5067 O   0  0  0  0  0  0  0  0  0  0  0  0
    3.8366    0.5249    0.4228 P   0  0  0  0  0  5  0  0  0  0  0  0
    4.2604   -0.4636   -0.6293 O   0  0  0  0  0  0  0  0  0  0  0  0
    4.6576    1.9704    0.1323 O   0  0  0  0  0  0  0  0  0  0  0  0
    4.3791   -0.0640    1.9209 O   0  0  0  0  0  0  0  0  0  0  0  0
   -0.8825   -0.8495   -0.5784 C   0  0  0  0  0  0  0  0  0  0  0  0
   -0.4275   -2.0097   -1.3069 C   0  0  0  0  0  0  0  0  0  0  0  0
    0.7635   -2.3475   -1.4920 O   0  0  0  0  0  0  0  0  0  0  0  0
   -2.2104   -0.5268   -0.4087 C   0  0  0  0  0  0  0  0  0  0  0  0
   -3.1757   -1.3543   -0.9576 O   0  0  0  0  0  0  0  0  0  0  0  0
   -4.2604    1.7565    1.0334 H   0  0  0  0  0  0  0  0  0  0  0  0
   -4.4926   -0.0060    0.9159 H   0  0  0  0  0  0  0  0  0  0  0  0
   -4.4641    1.0693   -0.5877 H   0  0  0  0  0  0  0  0  0  0  0  0
    0.3509    1.8100    1.1374 H   0  0  0  0  0  0  0  0  0  0  0  0
    1.7814   -1.2663    0.2699 H   0  0  0  0  0  0  0  0  0  0  0  0
    1.7850   -0.2496   -1.2183 H   0  0  0  0  0  0  0  0  0  0  0  0
    4.4025    2.2780   -0.7906 H   0  0  0  0  0  0  0  0  0  0  0  0
    3.9895   -0.9486    2.1355 H   0  0  0  0  0  0  0  0  0  0  0  0
   -1.1722   -2.6633   -1.7428 H   0  0  0  0  0  0  0  0  0  0  0  0
   -4.1708   -1.1339   -0.8440 H   0  0  0  0  0  0  0  0  0  0  0  0
  1  2  1  0
  2  3  2  0
  3  4  1  0
  4  5  2  0
  5  6  1  0
  6  7  1  0
  7  8  1  0
  8  9  2  0
  8 10  1  0
  8 11  1  0
  5 12  1  0
 12 13  1  0
 13 14  2  0
 12 15  2  0
 15 16  1  0
 15  2  1  0
  1 17  1  0
  1 18  1  0
  1 19  1  0
  4 20  1  0
  6 21  1  0
  6 22  1  0
 10 23  1  0
 11 24  1  0
 13 25  1  0
 16 26  1  0
M  END
$$$$

     RDKit          3D

 26 26  0  0  0  0  0  0  0  0999 V2000
   -4.3173    0.2761   -0.5416 C   0  0  0  0  0  0  0  0  0  0  0  0
   -2.8272    0.2760   -0.5099 C   0  0  0  0  0  0  0  0  0  0  0  0
   -2.1509    1.2642   -1.1064 N   0  0  0  0  0  0  0  0  0  0  0  0
   -0.7864    1.2349   -1.0142 C   0  0  0  0  0  0  0  0  0  0  0  0
   -0.0704    0.2917   -0.3404 C   0  0  0  0  0  0  0  0  0  0  0  0
    1.4093    0.1865   -0.4302 C   0  0  0  0  0  0  0  0  0  0  0  0
    2.1233    1.0966    0.3349 O   0  0  0  0  0  0  0  0  0  0  0  0
    3.7736    0.7850    0.0065 P   0  0  0  0  0  5  0  0  0  0  0  0
    4.2989    2.1243   -0.5314 O   0  0  0  0  0  0  0  0  0  0  0  0
    3.8674   -0.3429   -1.2505 O   0  0  0  0  0  0  0  0  0  0  0  0
    4.6799    0.3605    1.3330 O   0  0  0  0  0  0  0  0  0  0  0  0
   -0.8024   -0.7330    0.2982 C   0  0  0  0  0  0  0  0  0  0  0  0
   -0.0315   -1.7219    0.9905 C   0  0  0  0  0  0  0  0  0  0  0  0
   -0.5056   -2.7399    1.5155 O   0  0  0  0  0  0  0  0  0  0  0  0
   -2.1826   -0.6829    0.1674 C   0  0  0  0  0  0  0  0  0  0  0  0
   -2.9750   -1.6840    0.7800 O   0  0  0  0  0  0  0  0  0  0  0  0
   -4.7095    0.8327   -1.4470 H   0  0  0  0  0  0  0  0  0  0  0  0
   -4.8105    0.7695    0.3116 H   0  0  0  0  0  0  0  0  0  0  0  0
   -4.7072   -0.7609   -0.6737 H   0  0  0  0  0  0  0  0  0  0  0  0
   -0.2673    2.0133   -1.5486 H   0  0  0  0  0  0  0  0  0  0  0  0
    1.5617    0.8354   -1.4954 H   0  0  0  0  0  0  0  0  0  0  0  0
    1.8192   -0.7294   -0.7819 H   0  0  0  0  0  0  0  0  0  0  0  0
    3.5603    0.1655   -2.0748 H   0  0  0  0  0  0  0  0  0  0  0  0
    5.5662    0.8287    1.2413 H   0  0  0  0  0  0  0  0  0  0  0  0
    1.0531   -1.6002    1.0772 H   0  0  0  0  0  0  0  0  0  0  0  0
   -2.5692   -2.3457    1.4315 H   0  0  0  0  0  0  0  0  0  0  0  0
  1  2  1  0
  2  3  2  0
  3  4  1  0
  4  5  2  0
  5  6  1  0
  6  7  1  0
  7  8  1  0
  8  9  2  0
  8 10  1  0
  8 11  1  0
  5 12  1  0
 12 13  1  0
 13 14  2  0
 12 15  2  0
 15 16  1  0
 15  2  1  0
  1 17  1  0
  1 18  1  0
  1 19  1  0
  4 20  1  0
  6 21  1  0
  6 22  1  0
 10 23  1  0
 11 24  1  0
 13 25  1  0
 16 26  1  0
M  END
$$$$

     RDKit          3D

 26 26  0  0  0  0  0  0  0  0999 V2000
   -4.0085    1.4508   -0.1243 C   0  0  0  0  0  0  0  0  0  0  0  0
   -2.6024    0.9636   -0.1500 C   0  0  0  0  0  0  0  0  0  0  0  0
   -1.5784    1.7099   -0.5665 N   0  0  0  0  0  0  0  0  0  0  0  0
   -0.3166    1.2557   -0.5836 C   0  0  0  0  0  0  0  0  0  0  0  0
    0.0173   -0.0305   -0.1671 C   0  0  0  0  0  0  0  0  0  0  0  0
    1.4194   -0.5101   -0.2058 C   0  0  0  0  0  0  0  0  0  0  0  0
    2.2190    0.5601   -0.6928 O   0  0  0  0  0  0  0  0  0  0  0  0
    3.8326    0.1245   -0.7775 P   0  0  0  0  0  5  0  0  0  0  0  0
    4.0998   -0.5949   -2.0741 O   0  0  0  0  0  0  0  0  0  0  0  0
    4.7599    1.5392   -0.7218 O   0  0  0  0  0  0  0  0  0  0  0  0
    4.1628   -0.8694    0.5659 O   0  0  0  0  0  0  0  0  0  0  0  0
   -1.0183   -0.8325    0.2716 C   0  0  0  0  0  0  0  0  0  0  0  0
   -0.7333   -2.1785    0.7228 C   0  0  0  0  0  0  0  0  0  0  0  0
    0.4483   -2.5913    0.7046 O   0  0  0  0  0  0  0  0  0  0  0  0
   -2.3284   -0.3295    0.2778 C   0  0  0  0  0  0  0  0  0  0  0  0
   -3.3782   -1.1015    0.7072 O   0  0  0  0  0  0  0  0  0  0  0  0
   -4.2524    1.9617    0.8382 H   0  0  0  0  0  0  0  0  0  0  0  0
   -4.6838    0.6040   -0.3214 H   0  0  0  0  0  0  0  0  0  0  0  0
   -4.1505    2.2187   -0.9214 H   0  0  0  0  0  0  0  0  0  0  0  0
    0.5203    1.8766   -0.9279 H   0  0  0  0  0  0  0  0  0  0  0  0
    1.8503   -0.7502    0.7749 H   0  0  0  0  0  0  0  0  0  0  0  0
    1.5601   -1.3881   -0.8804 H   0  0  0  0  0  0  0  0  0  0  0  0
    4.4938    2.1311    0.0126 H   0  0  0  0  0  0  0  0  0  0  0  0
    4.3991   -0.3081    1.3326 H   0  0  0  0  0  0  0  0  0  0  0  0
   -1.4736   -2.8707    1.0817 H   0  0  0  0  0  0  0  0  0  0  0  0
   -3.2584   -2.0404    1.0291 H   0  0  0  0  0  0  0  0  0  0  0  0
  1  2  1  0
  2  3  2  0
  3  4  1  0
  4  5  2  0
  5  6  1  0
  6  7  1  0
  7  8  1  0
  8  9  2  0
  8 10  1  0
  8 11  1  0
  5 12  1  0
 12 13  1  0
 13 14  2  0
 12 15  2  0
 15 16  1  0
 15  2  1  0
  1 17  1  0
  1 18  1  0
  1 19  1  0
  4 20  1  0
  6 21  1  0
  6 22  1  0
 10 23  1  0
 11 24  1  0
 13 25  1  0
 16 26  1  0
M  END
$$$$

     RDKit          3D

 26 26  0  0  0  0  0  0  0  0999 V2000
   -4.2535    0.4236    0.8717 C   0  0  0  0  0  0  0  0  0  0  0  0
   -2.7934    0.3264    0.5915 C   0  0  0  0  0  0  0  0  0  0  0  0
   -1.8735    1.0698    1.2231 N   0  0  0  0  0  0  0  0  0  0  0  0
   -0.5579    0.9715    0.9598 C   0  0  0  0  0  0  0  0  0  0  0  0
   -0.0516    0.0860    0.0069 C   0  0  0  0  0  0  0  0  0  0  0  0
    1.4069    0.0224   -0.2414 C   0  0  0  0  0  0  0  0  0  0  0  0
    2.0062    0.9564    0.6245 O   0  0  0  0  0  0  0  0  0  0  0  0
    3.6768    0.9951    0.4526 P   0  0  0  0  0  5  0  0  0  0  0  0
    4.0604    2.4313    0.1336 O   0  0  0  0  0  0  0  0  0  0  0  0
    4.1636   -0.0151   -0.8131 O   0  0  0  0  0  0  0  0  0  0  0  0
    4.4312    0.5231    1.8951 O   0  0  0  0  0  0  0  0  0  0  0  0
   -0.9716   -0.6966   -0.6641 C   0  0  0  0  0  0  0  0  0  0  0  0
   -0.4982   -1.6276   -1.6574 C   0  0  0  0  0  0  0  0  0  0  0  0
    0.7256   -1.7186   -1.9016 O   0  0  0  0  0  0  0  0  0  0  0  0
   -2.3272   -0.5672   -0.3645 C   0  0  0  0  0  0  0  0  0  0  0  0
   -3.2566   -1.3313   -1.0157 O   0  0  0  0  0  0  0  0  0  0  0  0
   -4.5218   -0.0816    1.8175 H   0  0  0  0  0  0  0  0  0  0  0  0
   -4.7948   -0.0589    0.0320 H   0  0  0  0  0  0  0  0  0  0  0  0
   -4.5003    1.5034    0.9533 H   0  0  0  0  0  0  0  0  0  0  0  0
    0.1698    1.5969    1.4969 H   0  0  0  0  0  0  0  0  0  0  0  0
    1.6578    0.2648   -1.2916 H   0  0  0  0  0  0  0  0  0  0  0  0
    1.7823   -1.0041   -0.0101 H   0  0  0  0  0  0  0  0  0  0  0  0
    5.1249   -0.1556   -0.8284 H   0  0  0  0  0  0  0  0  0  0  0  0
    5.3870    0.3723    1.6810 H   0  0  0  0  0  0  0  0  0  0  0  0
   -1.1579   -2.2898   -2.2395 H   0  0  0  0  0  0  0  0  0  0  0  0
   -3.0342   -1.9969   -1.7121 H   0  0  0  0  0  0  0  0  0  0  0  0
  1  2  1  0
  2  3  2  0
  3  4  1  0
  4  5  2  0
  5  6  1  0
  6  7  1  0
  7  8  1  0
  8  9  2  0
  8 10  1  0
  8 11  1  0
  5 12  1  0
 12 13  1  0
 13 14  2  0
 12 15  2  0
 15 16  1  0
 15  2  1  0
  1 17  1  0
  1 18  1  0
  1 19  1  0
  4 20  1  0
  6 21  1  0
  6 22  1  0
 10 23  1  0
 11 24  1  0
 13 25  1  0
 16 26  1  0
M  END
$$$$

     RDKit          3D

 26 26  0  0  0  0  0  0  0  0999 V2000
   -3.8164    0.3271    1.9578 C   0  0  0  0  0  0  0  0  0  0  0  0
   -2.4759    0.2245    1.3142 C   0  0  0  0  0  0  0  0  0  0  0  0
   -1.3520    0.3940    2.0155 N   0  0  0  0  0  0  0  0  0  0  0  0
   -0.1318    0.3067    1.4591 C   0  0  0  0  0  0  0  0  0  0  0  0
    0.0602    0.0372    0.1292 C   0  0  0  0  0  0  0  0  0  0  0  0
    1.4132   -0.0573   -0.4767 C   0  0  0  0  0  0  0  0  0  0  0  0
    2.3771    0.1636    0.4921 O   0  0  0  0  0  0  0  0  0  0  0  0
    3.9098    0.0526   -0.2131 P   0  0  0  0  0  5  0  0  0  0  0  0
    4.7863    1.1357    0.4090 O   0  0  0  0  0  0  0  0  0  0  0  0
    3.8248    0.2231   -1.8930 O   0  0  0  0  0  0  0  0  0  0  0  0
    4.5731   -1.4459    0.1759 O   0  0  0  0  0  0  0  0  0  0  0  0
   -1.0979   -0.1471   -0.6405 C   0  0  0  0  0  0  0  0  0  0  0  0
   -0.8939   -0.4313   -2.0435 C   0  0  0  0  0  0  0  0  0  0  0  0
   -1.8176   -0.6191   -2.8558 O   0  0  0  0  0  0  0  0  0  0  0  0
   -2.3415   -0.0543   -0.0548 C   0  0  0  0  0  0  0  0  0  0  0  0
   -3.5261   -0.2186   -0.7246 O   0  0  0  0  0  0  0  0  0  0  0  0
   -3.9578    1.3086    2.4624 H   0  0  0  0  0  0  0  0  0  0  0  0
   -3.9714   -0.4505    2.7200 H   0  0  0  0  0  0  0  0  0  0  0  0
   -4.6007    0.2293    1.2058 H   0  0  0  0  0  0  0  0  0  0  0  0
    0.7716    0.4527    2.0708 H   0  0  0  0  0  0  0  0  0  0  0  0
    1.5466   -1.0123   -1.0129 H   0  0  0  0  0  0  0  0  0  0  0  0
    1.5187    0.7440   -1.2580 H   0  0  0  0  0  0  0  0  0  0  0  0
    3.6883    1.1617   -2.1680 H   0  0  0  0  0  0  0  0  0  0  0  0
    5.0550   -1.4154    1.0509 H   0  0  0  0  0  0  0  0  0  0  0  0
    0.1080   -0.4922   -2.4478 H   0  0  0  0  0  0  0  0  0  0  0  0
   -3.6498   -0.4168   -1.6741 H   0  0  0  0  0  0  0  0  0  0  0  0
  1  2  1  0
  2  3  2  0
  3  4  1  0
  4  5  2  0
  5  6  1  0
  6  7  1  0
  7  8  1  0
  8  9  2  0
  8 10  1  0
  8 11  1  0
  5 12  1  0
 12 13  1  0
 13 14  2  0
 12 15  2  0
 15 16  1  0
 15  2  1  0
  1 17  1  0
  1 18  1  0
  1 19  1  0
  4 20  1  0
  6 21  1  0
  6 22  1  0
 10 23  1  0
 11 24  1  0
 13 25  1  0
 16 26  1  0
M  END
$$$$

     RDKit          3D

 26 26  0  0  0  0  0  0  0  0999 V2000
   -3.1182   -2.2089   -0.2406 C   0  0  0  0  0  0  0  0  0  0  0  0
   -1.9754   -1.2433   -0.0729 C   0  0  0  0  0  0  0  0  0  0  0  0
   -0.7972   -1.6297    0.4098 N   0  0  0  0  0  0  0  0  0  0  0  0
    0.2451   -0.8119    0.5767 C   0  0  0  0  0  0  0  0  0  0  0  0
    0.1263    0.5120    0.2395 C   0  0  0  0  0  0  0  0  0  0  0  0
    1.2163    1.4541    0.4014 C   0  0  0  0  0  0  0  0  0  0  0  0
    2.4055    1.0898    0.8673 O   0  0  0  0  0  0  0  0  0  0  0  0
    3.3781    0.0109    0.1523 P   0  0  0  0  0  5  0  0  0  0  0  0
    3.9142   -0.9720    1.2004 O   0  0  0  0  0  0  0  0  0  0  0  0
    2.7705   -0.7815   -1.2014 O   0  0  0  0  0  0  0  0  0  0  0  0
    4.7849    0.8347   -0.3942 O   0  0  0  0  0  0  0  0  0  0  0  0
   -1.0783    0.9626   -0.2660 C   0  0  0  0  0  0  0  0  0  0  0  0
   -1.3219    2.3463   -0.6544 C   0  0  0  0  0  0  0  0  0  0  0  0
   -0.4787    3.2757   -0.5779 O   0  0  0  0  0  0  0  0  0  0  0  0
   -2.1388    0.0790   -0.4242 C   0  0  0  0  0  0  0  0  0  0  0  0
   -3.3737    0.4953   -0.9324 O   0  0  0  0  0  0  0  0  0  0  0  0
   -2.8267   -3.1515    0.2994 H   0  0  0  0  0  0  0  0  0  0  0  0
   -4.0310   -1.7828    0.1980 H   0  0  0  0  0  0  0  0  0  0  0  0
   -3.2039   -2.4151   -1.3262 H   0  0  0  0  0  0  0  0  0  0  0  0
    1.1978   -1.2084    0.9941 H   0  0  0  0  0  0  0  0  0  0  0  0
    0.8325    2.2977    1.0515 H   0  0  0  0  0  0  0  0  0  0  0  0
    1.3944    1.9623   -0.5994 H   0  0  0  0  0  0  0  0  0  0  0  0
    2.9884   -1.7511   -1.0892 H   0  0  0  0  0  0  0  0  0  0  0  0
    5.5176    0.1969   -0.5597 H   0  0  0  0  0  0  0  0  0  0  0  0
   -2.2986    2.6021   -1.0385 H   0  0  0  0  0  0  0  0  0  0  0  0
   -4.1293   -0.1632   -1.0387 H   0  0  0  0  0  0  0  0  0  0  0  0
  1  2  1  0
  2  3  2  0
  3  4  1  0
  4  5  2  0
  5  6  1  0
  6  7  1  0
  7  8  1  0
  8  9  2  0
  8 10  1  0
  8 11  1  0
  5 12  1  0
 12 13  1  0
 13 14  2  0
 12 15  2  0
 15 16  1  0
 15  2  1  0
  1 17  1  0
  1 18  1  0
  1 19  1  0
  4 20  1  0
  6 21  1  0
  6 22  1  0
 10 23  1  0
 11 24  1  0
 13 25  1  0
 16 26  1  0
M  END
$$$$

     RDKit          3D

 26 26  0  0  0  0  0  0  0  0999 V2000
   -3.2119   -1.9281    0.2740 C   0  0  0  0  0  0  0  0  0  0  0  0
   -2.0057   -1.0463    0.2797 C   0  0  0  0  0  0  0  0  0  0  0  0
   -0.8328   -1.4888    0.7152 N   0  0  0  0  0  0  0  0  0  0  0  0
    0.2822   -0.7070    0.7311 C   0  0  0  0  0  0  0  0  0  0  0  0
    0.2896    0.5970    0.3003 C   0  0  0  0  0  0  0  0  0  0  0  0
    1.5047    1.4239    0.3360 C   0  0  0  0  0  0  0  0  0  0  0  0
    2.6507    0.8462    0.7759 O   0  0  0  0  0  0  0  0  0  0  0  0
    3.2997   -0.4034   -0.0719 P   0  0  0  0  0  5  0  0  0  0  0  0
    4.5856    0.1247   -0.7343 O   0  0  0  0  0  0  0  0  0  0  0  0
    3.8350   -1.6368    0.9677 O   0  0  0  0  0  0  0  0  0  0  0  0
    2.3799   -1.0533   -1.2940 O   0  0  0  0  0  0  0  0  0  0  0  0
   -0.9297    1.0769   -0.1575 C   0  0  0  0  0  0  0  0  0  0  0  0
   -1.0554    2.4435   -0.6250 C   0  0  0  0  0  0  0  0  0  0  0  0
   -0.1367    3.2840   -0.6702 O   0  0  0  0  0  0  0  0  0  0  0  0
   -2.0532    0.2576   -0.1631 C   0  0  0  0  0  0  0  0  0  0  0  0
   -3.2730    0.7571   -0.6286 O   0  0  0  0  0  0  0  0  0  0  0  0
   -2.9696   -2.9051    0.6900 H   0  0  0  0  0  0  0  0  0  0  0  0
   -3.4859   -2.0683   -0.7942 H   0  0  0  0  0  0  0  0  0  0  0  0
   -4.0394   -1.3977    0.7875 H   0  0  0  0  0  0  0  0  0  0  0  0
    1.1577   -1.1902    1.1283 H   0  0  0  0  0  0  0  0  0  0  0  0
    1.6539    1.9358   -0.6651 H   0  0  0  0  0  0  0  0  0  0  0  0
    1.2852    2.2834    1.0307 H   0  0  0  0  0  0  0  0  0  0  0  0
    4.5245   -1.3040    1.6021 H   0  0  0  0  0  0  0  0  0  0  0  0
    2.6900   -0.8538   -2.2016 H   0  0  0  0  0  0  0  0  0  0  0  0
   -2.0521    2.7727   -0.9728 H   0  0  0  0  0  0  0  0  0  0  0  0
   -4.0933    0.1802   -0.6399 H   0  0  0  0  0  0  0  0  0  0  0  0
  1  2  1  0
  2  3  2  0
  3  4  1  0
  4  5  2  0
  5  6  1  0
  6  7  1  0
  7  8  1  0
  8  9  2  0
  8 10  1  0
  8 11  1  0
  5 12  1  0
 12 13  1  0
 13 14  2  0
 12 15  2  0
 15 16  1  0
 15  2  1  0
  1 17  1  0
  1 18  1  0
  1 19  1  0
  4 20  1  0
  6 21  1  0
  6 22  1  0
 10 23  1  0
 11 24  1  0
 13 25  1  0
 16 26  1  0
M  END
$$$$

     RDKit          3D

 26 26  0  0  0  0  0  0  0  0999 V2000
   -3.9379   -0.1354    1.6501 C   0  0  0  0  0  0  0  0  0  0  0  0
   -2.5450   -0.0994    1.1526 C   0  0  0  0  0  0  0  0  0  0  0  0
   -1.4665   -0.2072    1.9376 N   0  0  0  0  0  0  0  0  0  0  0  0
   -0.2257   -0.1648    1.4039 C   0  0  0  0  0  0  0  0  0  0  0  0
    0.0107   -0.0118    0.0509 C   0  0  0  0  0  0  0  0  0  0  0  0
    1.4101    0.0076   -0.4157 C   0  0  0  0  0  0  0  0  0  0  0  0
    2.2470   -0.1166    0.6889 O   0  0  0  0  0  0  0  0  0  0  0  0
    3.8760   -0.1048    0.2553 P   0  0  0  0  0  5  0  0  0  0  0  0
    4.7616    0.3564    1.3800 O   0  0  0  0  0  0  0  0  0  0  0  0
    4.3221   -1.6695   -0.1979 O   0  0  0  0  0  0  0  0  0  0  0  0
    4.0449    0.9878   -1.0303 O   0  0  0  0  0  0  0  0  0  0  0  0
   -1.0847    0.1021   -0.7806 C   0  0  0  0  0  0  0  0  0  0  0  0
   -0.8334    0.2681   -2.1888 C   0  0  0  0  0  0  0  0  0  0  0  0
    0.3029    0.3136   -2.7126 O   0  0  0  0  0  0  0  0  0  0  0  0
   -2.3318    0.0558   -0.2141 C   0  0  0  0  0  0  0  0  0  0  0  0
   -3.4519    0.1652   -1.0066 O   0  0  0  0  0  0  0  0  0  0  0  0
   -4.0270   -0.6564    2.6226 H   0  0  0  0  0  0  0  0  0  0  0  0
   -4.5941   -0.5814    0.8787 H   0  0  0  0  0  0  0  0  0  0  0  0
   -4.2710    0.9342    1.7453 H   0  0  0  0  0  0  0  0  0  0  0  0
    0.5899   -0.2610    2.1237 H   0  0  0  0  0  0  0  0  0  0  0  0
    1.6004    0.9925   -0.8814 H   0  0  0  0  0  0  0  0  0  0  0  0
    1.6313   -0.7593   -1.1868 H   0  0  0  0  0  0  0  0  0  0  0  0
    5.1860   -1.9510    0.2015 H   0  0  0  0  0  0  0  0  0  0  0  0
    3.8904    1.8944   -0.6298 H   0  0  0  0  0  0  0  0  0  0  0  0
   -1.6654    0.3624   -2.8621 H   0  0  0  0  0  0  0  0  0  0  0  0
   -3.4390    0.2783   -1.9847 H   0  0  0  0  0  0  0  0  0  0  0  0
  1  2  1  0
  2  3  2  0
  3  4  1  0
  4  5  2  0
  5  6  1  0
  6  7  1  0
  7  8  1  0
  8  9  2  0
  8 10  1  0
  8 11  1  0
  5 12  1  0
 12 13  1  0
 13 14  2  0
 12 15  2  0
 15 16  1  0
 15  2  1  0
  1 17  1  0
  1 18  1  0
  1 19  1  0
  4 20  1  0
  6 21  1  0
  6 22  1  0
 10 23  1  0
 11 24  1  0
 13 25  1  0
 16 26  1  0
M  END
$$$$

     RDKit          3D

 26 26  0  0  0  0  0  0  0  0999 V2000
    4.1649    0.6457   -0.8308 C   0  0  0  0  0  0  0  0  0  0  0  0
    2.6938    0.4682   -0.6130 C   0  0  0  0  0  0  0  0  0  0  0  0
    1.7957    1.0981   -1.3700 N   0  0  0  0  0  0  0  0  0  0  0  0
    0.4734    0.9249   -1.1576 C   0  0  0  0  0  0  0  0  0  0  0  0
   -0.0063    0.1044   -0.1672 C   0  0  0  0  0  0  0  0  0  0  0  0
   -1.4412   -0.0625    0.0399 C   0  0  0  0  0  0  0  0  0  0  0  0
   -2.2022    0.6939   -0.8724 O   0  0  0  0  0  0  0  0  0  0  0  0
   -3.8257    0.3938   -0.5033 P   0  0  0  0  0  5  0  0  0  0  0  0
   -4.5902   -0.1292   -1.6903 O   0  0  0  0  0  0  0  0  0  0  0  0
   -4.5761    1.8323    0.0398 O   0  0  0  0  0  0  0  0  0  0  0  0
   -3.9947   -0.7301    0.7488 O   0  0  0  0  0  0  0  0  0  0  0  0
    0.8979   -0.5601    0.6314 C   0  0  0  0  0  0  0  0  0  0  0  0
    0.4270   -1.4560    1.7116 C   0  0  0  0  0  0  0  0  0  0  0  0
   -0.8013   -1.6139    1.9047 O   0  0  0  0  0  0  0  0  0  0  0  0
    2.2307   -0.3750    0.4047 C   0  0  0  0  0  0  0  0  0  0  0  0
    3.1955   -0.9945    1.1490 O   0  0  0  0  0  0  0  0  0  0  0  0
    4.6429   -0.3571   -0.6504 H   0  0  0  0  0  0  0  0  0  0  0  0
    4.3981    0.9149   -1.8624 H   0  0  0  0  0  0  0  0  0  0  0  0
    4.5795    1.3334   -0.0680 H   0  0  0  0  0  0  0  0  0  0  0  0
   -0.1880    1.4876   -1.8343 H   0  0  0  0  0  0  0  0  0  0  0  0
   -1.7587    0.2860    1.0413 H   0  0  0  0  0  0  0  0  0  0  0  0
   -1.7814   -1.1054   -0.1135 H   0  0  0  0  0  0  0  0  0  0  0  0
   -4.7891    2.4185   -0.7168 H   0  0  0  0  0  0  0  0  0  0  0  0
   -3.7705   -1.6509    0.4552 H   0  0  0  0  0  0  0  0  0  0  0  0
    1.1728   -1.9450    2.2986 H   0  0  0  0  0  0  0  0  0  0  0  0
    3.0531   -1.6220    1.9058 H   0  0  0  0  0  0  0  0  0  0  0  0
  1  2  1  0
  2  3  2  0
  3  4  1  0
  4  5  2  0
  5  6  1  0
  6  7  1  0
  7  8  1  0
  8  9  2  0
  8 10  1  0
  8 11  1  0
  5 12  1  0
 12 13  1  0
 13 14  2  0
 12 15  2  0
 15 16  1  0
 15  2  1  0
  1 17  1  0
  1 18  1  0
  1 19  1  0
  4 20  1  0
  6 21  1  0
  6 22  1  0
 10 23  1  0
 11 24  1  0
 13 25  1  0
 16 26  1  0
M  END
$$$$

     RDKit          3D

 26 26  0  0  0  0  0  0  0  0999 V2000
   -4.0451    1.2805    0.1121 C   0  0  0  0  0  0  0  0  0  0  0  0
   -2.5963    0.9000    0.1321 C   0  0  0  0  0  0  0  0  0  0  0  0
   -1.6473    1.7482    0.5458 N   0  0  0  0  0  0  0  0  0  0  0  0
   -0.3562    1.3897    0.5567 C   0  0  0  0  0  0  0  0  0  0  0  0
    0.0128    0.1153    0.1321 C   0  0  0  0  0  0  0  0  0  0  0  0
    1.4356   -0.2473    0.1698 C   0  0  0  0  0  0  0  0  0  0  0  0
    2.1835    0.8519    0.6357 O   0  0  0  0  0  0  0  0  0  0  0  0
    3.8302    0.4726    0.6932 P   0  0  0  0  0  5  0  0  0  0  0  0
    4.5041    1.0653    1.8998 O   0  0  0  0  0  0  0  0  0  0  0  0
    4.6376    0.9962   -0.6860 O   0  0  0  0  0  0  0  0  0  0  0  0
    3.9273   -1.2258    0.8568 O   0  0  0  0  0  0  0  0  0  0  0  0
   -0.9706   -0.7748   -0.3012 C   0  0  0  0  0  0  0  0  0  0  0  0
   -0.5842   -2.0856   -0.7449 C   0  0  0  0  0  0  0  0  0  0  0  0
    0.6146   -2.4375   -0.7447 O   0  0  0  0  0  0  0  0  0  0  0  0
   -2.3012   -0.3957   -0.3086 C   0  0  0  0  0  0  0  0  0  0  0  0
   -3.3273   -1.2155   -0.7204 O   0  0  0  0  0  0  0  0  0  0  0  0
   -4.4718    0.9446    1.0669 H   0  0  0  0  0  0  0  0  0  0  0  0
   -4.1147    2.3856    0.0679 H   0  0  0  0  0  0  0  0  0  0  0  0
   -4.5545    0.8602   -0.7726 H   0  0  0  0  0  0  0  0  0  0  0  0
    0.4294    2.0688    0.8908 H   0  0  0  0  0  0  0  0  0  0  0  0
    1.6531   -1.1441    0.8008 H   0  0  0  0  0  0  0  0  0  0  0  0
    1.7959   -0.4508   -0.8566 H   0  0  0  0  0  0  0  0  0  0  0  0
    4.0425    1.3921   -1.3547 H   0  0  0  0  0  0  0  0  0  0  0  0
    4.4118   -1.5557    0.0608 H   0  0  0  0  0  0  0  0  0  0  0  0
   -1.3320   -2.7913   -1.0879 H   0  0  0  0  0  0  0  0  0  0  0  0
   -3.1771   -2.1468   -1.0438 H   0  0  0  0  0  0  0  0  0  0  0  0
  1  2  1  0
  2  3  2  0
  3  4  1  0
  4  5  2  0
  5  6  1  0
  6  7  1  0
  7  8  1  0
  8  9  2  0
  8 10  1  0
  8 11  1  0
  5 12  1  0
 12 13  1  0
 13 14  2  0
 12 15  2  0
 15 16  1  0
 15  2  1  0
  1 17  1  0
  1 18  1  0
  1 19  1  0
  4 20  1  0
  6 21  1  0
  6 22  1  0
 10 23  1  0
 11 24  1  0
 13 25  1  0
 16 26  1  0
M  END
$$$$

     RDKit          3D

 26 26  0  0  0  0  0  0  0  0999 V2000
   -3.8283   -1.5668    0.2887 C   0  0  0  0  0  0  0  0  0  0  0  0
   -2.4664   -1.0187    0.1251 C   0  0  0  0  0  0  0  0  0  0  0  0
   -1.4194   -1.7361    0.5466 N   0  0  0  0  0  0  0  0  0  0  0  0
   -0.1731   -1.2457    0.4026 C   0  0  0  0  0  0  0  0  0  0  0  0
    0.0928   -0.0241   -0.1647 C   0  0  0  0  0  0  0  0  0  0  0  0
    1.4881    0.4823   -0.3054 C   0  0  0  0  0  0  0  0  0  0  0  0
    2.3311   -0.4665    0.2123 O   0  0  0  0  0  0  0  0  0  0  0  0
    3.9503   -0.0736    0.1426 P   0  0  0  0  0  5  0  0  0  0  0  0
    4.6746   -0.9470    1.1717 O   0  0  0  0  0  0  0  0  0  0  0  0
    4.6498   -0.4313   -1.3540 O   0  0  0  0  0  0  0  0  0  0  0  0
    4.1687    1.5156    0.6015 O   0  0  0  0  0  0  0  0  0  0  0  0
   -0.9726    0.7311   -0.6057 C   0  0  0  0  0  0  0  0  0  0  0  0
   -0.7781    2.0304   -1.2156 C   0  0  0  0  0  0  0  0  0  0  0  0
   -1.7286    2.7246   -1.6188 O   0  0  0  0  0  0  0  0  0  0  0  0
   -2.2520    0.2087   -0.4488 C   0  0  0  0  0  0  0  0  0  0  0  0
   -3.3131    0.9570   -0.8862 O   0  0  0  0  0  0  0  0  0  0  0  0
   -3.8660   -2.3779    1.0579 H   0  0  0  0  0  0  0  0  0  0  0  0
   -4.1914   -2.0117   -0.6538 H   0  0  0  0  0  0  0  0  0  0  0  0
   -4.5570   -0.7962    0.6658 H   0  0  0  0  0  0  0  0  0  0  0  0
    0.6992   -1.8156    0.7404 H   0  0  0  0  0  0  0  0  0  0  0  0
    1.6099    1.4838    0.1526 H   0  0  0  0  0  0  0  0  0  0  0  0
    1.6393    0.6419   -1.4076 H   0  0  0  0  0  0  0  0  0  0  0  0
    4.7255   -1.4306   -1.3873 H   0  0  0  0  0  0  0  0  0  0  0  0
    3.5368    2.1537    0.2029 H   0  0  0  0  0  0  0  0  0  0  0  0
    0.2243    2.4109   -1.3247 H   0  0  0  0  0  0  0  0  0  0  0  0
   -4.2445    0.6020   -0.7844 H   0  0  0  0  0  0  0  0  0  0  0  0
  1  2  1  0
  2  3  2  0
  3  4  1  0
  4  5  2  0
  5  6  1  0
  6  7  1  0
  7  8  1  0
  8  9  2  0
  8 10  1  0
  8 11  1  0
  5 12  1  0
 12 13  1  0
 13 14  2  0
 12 15  2  0
 15 16  1  0
 15  2  1  0
  1 17  1  0
  1 18  1  0
  1 19  1  0
  4 20  1  0
  6 21  1  0
  6 22  1  0
 10 23  1  0
 11 24  1  0
 13 25  1  0
 16 26  1  0
M  END
$$$$

     RDKit          3D

 26 26  0  0  0  0  0  0  0  0999 V2000
   -4.2546   -0.2223   -0.9266 C   0  0  0  0  0  0  0  0  0  0  0  0
   -2.7884   -0.3899   -0.8466 C   0  0  0  0  0  0  0  0  0  0  0  0
   -2.0250   -1.0881   -1.6760 N   0  0  0  0  0  0  0  0  0  0  0  0
   -0.6636   -1.1655   -1.5637 C   0  0  0  0  0  0  0  0  0  0  0  0
    0.0033   -0.5093   -0.5634 C   0  0  0  0  0  0  0  0  0  0  0  0
    1.4826   -0.4200   -0.6220 C   0  0  0  0  0  0  0  0  0  0  0  0
    2.2182   -0.7250    0.5014 O   0  0  0  0  0  0  0  0  0  0  0  0
    3.8306   -0.4252    0.1108 P   0  0  0  0  0  5  0  0  0  0  0  0
    4.6139   -1.7035    0.1811 O   0  0  0  0  0  0  0  0  0  0  0  0
    4.4135    0.7324    1.2395 O   0  0  0  0  0  0  0  0  0  0  0  0
    3.9124    0.2819   -1.4189 O   0  0  0  0  0  0  0  0  0  0  0  0
   -0.7399    0.2282    0.3428 C   0  0  0  0  0  0  0  0  0  0  0  0
   -0.0209    0.8559    1.4291 C   0  0  0  0  0  0  0  0  0  0  0  0
   -0.6855    1.4796    2.3190 O   0  0  0  0  0  0  0  0  0  0  0  0
   -2.1223    0.2897    0.2053 C   0  0  0  0  0  0  0  0  0  0  0  0
   -2.8811    1.0135    1.1003 O   0  0  0  0  0  0  0  0  0  0  0  0
   -4.8270   -1.1207   -0.6266 H   0  0  0  0  0  0  0  0  0  0  0  0
   -4.6001    0.7059   -0.3958 H   0  0  0  0  0  0  0  0  0  0  0  0
   -4.5276   -0.0265   -2.0038 H   0  0  0  0  0  0  0  0  0  0  0  0
   -0.1539   -1.7745   -2.3248 H   0  0  0  0  0  0  0  0  0  0  0  0
    1.8565    0.3449   -1.3005 H   0  0  0  0  0  0  0  0  0  0  0  0
    1.7766   -1.4026   -1.2796 H   0  0  0  0  0  0  0  0  0  0  0  0
    3.7032    1.4015    1.3853 H   0  0  0  0  0  0  0  0  0  0  0  0
    4.2351    1.2274   -1.4158 H   0  0  0  0  0  0  0  0  0  0  0  0
    1.0196    0.8432    1.5681 H   0  0  0  0  0  0  0  0  0  0  0  0
   -2.7756    1.5688    1.8435 H   0  0  0  0  0  0  0  0  0  0  0  0
  1  2  1  0
  2  3  2  0
  3  4  1  0
  4  5  2  0
  5  6  1  0
  6  7  1  0
  7  8  1  0
  8  9  2  0
  8 10  1  0
  8 11  1  0
  5 12  1  0
 12 13  1  0
 13 14  2  0
 12 15  2  0
 15 16  1  0
 15  2  1  0
  1 17  1  0
  1 18  1  0
  1 19  1  0
  4 20  1  0
  6 21  1  0
  6 22  1  0
 10 23  1  0
 11 24  1  0
 13 25  1  0
 16 26  1  0
M  END
$$$$

     RDKit          3D

 26 26  0  0  0  0  0  0  0  0999 V2000
   -3.0554   -2.1222   -0.1720 C   0  0  0  0  0  0  0  0  0  0  0  0
   -1.9066   -1.2060    0.0243 C   0  0  0  0  0  0  0  0  0  0  0  0
   -0.7695   -1.7045    0.5376 N   0  0  0  0  0  0  0  0  0  0  0  0
    0.3164   -0.8899    0.7348 C   0  0  0  0  0  0  0  0  0  0  0  0
    0.2497    0.4340    0.4091 C   0  0  0  0  0  0  0  0  0  0  0  0
    1.3600    1.3620    0.6369 C   0  0  0  0  0  0  0  0  0  0  0  0
    2.5117    0.7849    1.0705 O   0  0  0  0  0  0  0  0  0  0  0  0
    3.2481   -0.2486   -0.0120 P   0  0  0  0  0  5  0  0  0  0  0  0
    3.8684   -1.3998    0.7513 O   0  0  0  0  0  0  0  0  0  0  0  0
    4.4896    0.6263   -0.8219 O   0  0  0  0  0  0  0  0  0  0  0  0
    2.2301   -0.7783   -1.2559 O   0  0  0  0  0  0  0  0  0  0  0  0
   -0.9578    0.9372   -0.1291 C   0  0  0  0  0  0  0  0  0  0  0  0
   -1.0023    2.3485   -0.4647 C   0  0  0  0  0  0  0  0  0  0  0  0
   -2.0762    2.8009   -0.9447 O   0  0  0  0  0  0  0  0  0  0  0  0
   -2.0380    0.1177   -0.3223 C   0  0  0  0  0  0  0  0  0  0  0  0
   -3.1992    0.6664   -0.8544 O   0  0  0  0  0  0  0  0  0  0  0  0
   -3.6423   -2.1997    0.7588 H   0  0  0  0  0  0  0  0  0  0  0  0
   -2.6319   -3.1503   -0.3550 H   0  0  0  0  0  0  0  0  0  0  0  0
   -3.6672   -1.8695   -1.0599 H   0  0  0  0  0  0  0  0  0  0  0  0
    1.2139   -1.2926    1.1751 H   0  0  0  0  0  0  0  0  0  0  0  0
    1.6164    1.8394   -0.3669 H   0  0  0  0  0  0  0  0  0  0  0  0
    1.0568    2.2099    1.3170 H   0  0  0  0  0  0  0  0  0  0  0  0
    4.7695    1.3307   -0.2168 H   0  0  0  0  0  0  0  0  0  0  0  0
    2.2388   -1.7567   -1.2666 H   0  0  0  0  0  0  0  0  0  0  0  0
   -0.1818    3.0263   -0.3298 H   0  0  0  0  0  0  0  0  0  0  0  0
   -4.0413    0.1340   -1.0293 H   0  0  0  0  0  0  0  0  0  0  0  0
  1  2  1  0
  2  3  2  0
  3  4  1  0
  4  5  2  0
  5  6  1  0
  6  7  1  0
  7  8  1  0
  8  9  2  0
  8 10  1  0
  8 11  1  0
  5 12  1  0
 12 13  1  0
 13 14  2  0
 12 15  2  0
 15 16  1  0
 15  2  1  0
  1 17  1  0
  1 18  1  0
  1 19  1  0
  4 20  1  0
  6 21  1  0
  6 22  1  0
 10 23  1  0
 11 24  1  0
 13 25  1  0
 16 26  1  0
M  END
$$$$

     RDKit          3D

 26 26  0  0  0  0  0  0  0  0999 V2000
   -4.1709    0.7794    0.5698 C   0  0  0  0  0  0  0  0  0  0  0  0
   -2.7143    0.5487    0.3652 C   0  0  0  0  0  0  0  0  0  0  0  0
   -1.8299    1.5348    0.5952 N   0  0  0  0  0  0  0  0  0  0  0  0
   -0.5079    1.3549    0.4190 C   0  0  0  0  0  0  0  0  0  0  0  0
   -0.0163    0.1516   -0.0037 C   0  0  0  0  0  0  0  0  0  0  0  0
    1.4297   -0.0265   -0.1779 C   0  0  0  0  0  0  0  0  0  0  0  0
    2.0873    1.1821    0.1267 O   0  0  0  0  0  0  0  0  0  0  0  0
    3.7389    0.9006   -0.0952 P   0  0  0  0  0  5  0  0  0  0  0  0
    4.2263    1.9084   -1.1140 O   0  0  0  0  0  0  0  0  0  0  0  0
    4.4934    1.1087    1.3993 O   0  0  0  0  0  0  0  0  0  0  0  0
    4.0307   -0.6462   -0.7102 O   0  0  0  0  0  0  0  0  0  0  0  0
   -0.9045   -0.8717   -0.2455 C   0  0  0  0  0  0  0  0  0  0  0  0
   -0.3735   -2.1363   -0.6991 C   0  0  0  0  0  0  0  0  0  0  0  0
    0.8399   -2.4000   -0.8950 O   0  0  0  0  0  0  0  0  0  0  0  0
   -2.2668   -0.7098   -0.0711 C   0  0  0  0  0  0  0  0  0  0  0  0
   -3.1803   -1.7159   -0.3047 O   0  0  0  0  0  0  0  0  0  0  0  0
   -4.7295   -0.1599    0.6004 H   0  0  0  0  0  0  0  0  0  0  0  0
   -4.4960    1.4517   -0.2739 H   0  0  0  0  0  0  0  0  0  0  0  0
   -4.2703    1.3845    1.5129 H   0  0  0  0  0  0  0  0  0  0  0  0
    0.2022    2.1733    0.6121 H   0  0  0  0  0  0  0  0  0  0  0  0
    1.6259   -0.2454   -1.2430 H   0  0  0  0  0  0  0  0  0  0  0  0
    1.8668   -0.8547    0.4212 H   0  0  0  0  0  0  0  0  0  0  0  0
    4.6626    2.0853    1.5070 H   0  0  0  0  0  0  0  0  0  0  0  0
    4.2822   -1.2263    0.0685 H   0  0  0  0  0  0  0  0  0  0  0  0
   -1.0575   -2.9492   -0.8963 H   0  0  0  0  0  0  0  0  0  0  0  0
   -2.9682   -2.6219   -0.6087 H   0  0  0  0  0  0  0  0  0  0  0  0
  1  2  1  0
  2  3  2  0
  3  4  1  0
  4  5  2  0
  5  6  1  0
  6  7  1  0
  7  8  1  0
  8  9  2  0
  8 10  1  0
  8 11  1  0
  5 12  1  0
 12 13  1  0
 13 14  2  0
 12 15  2  0
 15 16  1  0
 15  2  1  0
  1 17  1  0
  1 18  1  0
  1 19  1  0
  4 20  1  0
  6 21  1  0
  6 22  1  0
 10 23  1  0
 11 24  1  0
 13 25  1  0
 16 26  1  0
M  END
$$$$

     RDKit          3D

 26 26  0  0  0  0  0  0  0  0999 V2000
   -4.3264    0.0671    0.2220 C   0  0  0  0  0  0  0  0  0  0  0  0
   -2.8551   -0.1808    0.2286 C   0  0  0  0  0  0  0  0  0  0  0  0
   -2.3554   -1.3825    0.0271 N   0  0  0  0  0  0  0  0  0  0  0  0
   -1.0149   -1.6356   -0.0078 C   0  0  0  0  0  0  0  0  0  0  0  0
   -0.1209   -0.6144    0.1740 C   0  0  0  0  0  0  0  0  0  0  0  0
    1.3506   -0.8070    0.3057 C   0  0  0  0  0  0  0  0  0  0  0  0
    1.8957   -0.7929   -0.9501 O   0  0  0  0  0  0  0  0  0  0  0  0
    3.5975   -0.8320   -0.9681 P   0  0  0  0  0  5  0  0  0  0  0  0
    4.1169   -1.6315   -2.0502 O   0  0  0  0  0  0  0  0  0  0  0  0
    4.1445    0.7703   -1.1207 O   0  0  0  0  0  0  0  0  0  0  0  0
    4.2466   -1.3817    0.5504 O   0  0  0  0  0  0  0  0  0  0  0  0
   -0.6347    0.6695    0.3767 C   0  0  0  0  0  0  0  0  0  0  0  0
    0.3640    1.7468    0.3872 C   0  0  0  0  0  0  0  0  0  0  0  0
   -0.0343    2.9539    0.4471 O   0  0  0  0  0  0  0  0  0  0  0  0
   -1.9783    0.8922    0.4064 C   0  0  0  0  0  0  0  0  0  0  0  0
   -2.5399    2.1040    0.5875 O   0  0  0  0  0  0  0  0  0  0  0  0
   -4.8584   -0.5890    0.9154 H   0  0  0  0  0  0  0  0  0  0  0  0
   -4.7491   -0.2077   -0.8160 H   0  0  0  0  0  0  0  0  0  0  0  0
   -4.6054    1.0953    0.3619 H   0  0  0  0  0  0  0  0  0  0  0  0
   -0.6937   -2.6543   -0.1838 H   0  0  0  0  0  0  0  0  0  0  0  0
    1.8486   -0.3939    1.1545 H   0  0  0  0  0  0  0  0  0  0  0  0
    1.3553   -1.9974    0.4709 H   0  0  0  0  0  0  0  0  0  0  0  0
    3.5579    1.1624   -1.8839 H   0  0  0  0  0  0  0  0  0  0  0  0
    5.1068   -0.9142    0.6139 H   0  0  0  0  0  0  0  0  0  0  0  0
    1.3933    1.5514    0.3465 H   0  0  0  0  0  0  0  0  0  0  0  0
   -2.2115    3.0020    0.7939 H   0  0  0  0  0  0  0  0  0  0  0  0
  1  2  1  0
  2  3  2  0
  3  4  1  0
  4  5  2  0
  5  6  1  0
  6  7  1  0
  7  8  1  0
  8  9  2  0
  8 10  1  0
  8 11  1  0
  5 12  1  0
 12 13  1  0
 13 14  2  0
 12 15  2  0
 15 16  1  0
 15  2  1  0
  1 17  1  0
  1 18  1  0
  1 19  1  0
  4 20  1  0
  6 21  1  0
  6 22  1  0
 10 23  1  0
 11 24  1  0
 13 25  1  0
 16 26  1  0
M  END
$$$$

     RDKit          3D

 26 26  0  0  0  0  0  0  0  0999 V2000
   -4.0354    1.1462   -0.5245 C   0  0  0  0  0  0  0  0  0  0  0  0
   -2.6315    0.7611   -0.2807 C   0  0  0  0  0  0  0  0  0  0  0  0
   -1.6551    1.6810   -0.3391 N   0  0  0  0  0  0  0  0  0  0  0  0
   -0.3544    1.3958   -0.1270 C   0  0  0  0  0  0  0  0  0  0  0  0
    0.0355    0.1110    0.1668 C   0  0  0  0  0  0  0  0  0  0  0  0
    1.4638   -0.1976    0.3989 C   0  0  0  0  0  0  0  0  0  0  0  0
    2.2775    0.9063    0.2855 O   0  0  0  0  0  0  0  0  0  0  0  0
    3.8691    0.4005    0.5753 P   0  0  0  0  0  5  0  0  0  0  0  0
    4.0786    0.0552    2.0224 O   0  0  0  0  0  0  0  0  0  0  0  0
    4.2569   -0.9656   -0.3466 O   0  0  0  0  0  0  0  0  0  0  0  0
    4.9691    1.6153    0.1517 O   0  0  0  0  0  0  0  0  0  0  0  0
   -0.9380   -0.8588    0.2351 C   0  0  0  0  0  0  0  0  0  0  0  0
   -0.5984   -2.2215    0.5377 C   0  0  0  0  0  0  0  0  0  0  0  0
   -1.4689   -3.1272    0.6061 O   0  0  0  0  0  0  0  0  0  0  0  0
   -2.2839   -0.5350    0.0100 C   0  0  0  0  0  0  0  0  0  0  0  0
   -3.2284   -1.5170    0.0842 O   0  0  0  0  0  0  0  0  0  0  0  0
   -4.7400    0.5344    0.0804 H   0  0  0  0  0  0  0  0  0  0  0  0
   -4.2005    2.2225   -0.2871 H   0  0  0  0  0  0  0  0  0  0  0  0
   -4.2411    0.9395   -1.6034 H   0  0  0  0  0  0  0  0  0  0  0  0
    0.4076    2.1646   -0.1823 H   0  0  0  0  0  0  0  0  0  0  0  0
    1.7775   -1.0229   -0.2950 H   0  0  0  0  0  0  0  0  0  0  0  0
    1.5353   -0.5396    1.4700 H   0  0  0  0  0  0  0  0  0  0  0  0
    4.8899   -1.5332    0.1531 H   0  0  0  0  0  0  0  0  0  0  0  0
    4.5862    2.5041    0.4375 H   0  0  0  0  0  0  0  0  0  0  0  0
    0.4331   -2.4891    0.7139 H   0  0  0  0  0  0  0  0  0  0  0  0
   -4.2042   -1.4300   -0.0506 H   0  0  0  0  0  0  0  0  0  0  0  0
  1  2  1  0
  2  3  2  0
  3  4  1  0
  4  5  2  0
  5  6  1  0
  6  7  1  0
  7  8  1  0
  8  9  2  0
  8 10  1  0
  8 11  1  0
  5 12  1  0
 12 13  1  0
 13 14  2  0
 12 15  2  0
 15 16  1  0
 15  2  1  0
  1 17  1  0
  1 18  1  0
  1 19  1  0
  4 20  1  0
  6 21  1  0
  6 22  1  0
 10 23  1  0
 11 24  1  0
 13 25  1  0
 16 26  1  0
M  END
$$$$

     RDKit          3D

 26 26  0  0  0  0  0  0  0  0999 V2000
   -4.1627    0.8763    0.5357 C   0  0  0  0  0  0  0  0  0  0  0  0
   -2.6926    0.6100    0.3618 C   0  0  0  0  0  0  0  0  0  0  0  0
   -1.7837    1.4902    0.8234 N   0  0  0  0  0  0  0  0  0  0  0  0
   -0.4391    1.3027    0.6952 C   0  0  0  0  0  0  0  0  0  0  0  0
    0.0507    0.1781    0.0734 C   0  0  0  0  0  0  0  0  0  0  0  0
    1.4751   -0.0794   -0.0944 C   0  0  0  0  0  0  0  0  0  0  0  0
    2.3032    0.8891    0.4168 O   0  0  0  0  0  0  0  0  0  0  0  0
    3.9023    0.3914    0.1148 P   0  0  0  0  0  5  0  0  0  0  0  0
    3.9902   -0.1395   -1.3117 O   0  0  0  0  0  0  0  0  0  0  0  0
    4.3821   -0.8276    1.1539 O   0  0  0  0  0  0  0  0  0  0  0  0
    4.9761    1.6809    0.2253 O   0  0  0  0  0  0  0  0  0  0  0  0
   -0.8735   -0.7288   -0.4025 C   0  0  0  0  0  0  0  0  0  0  0  0
   -0.3767   -1.9210   -1.0612 C   0  0  0  0  0  0  0  0  0  0  0  0
   -1.1999   -2.7553   -1.4994 O   0  0  0  0  0  0  0  0  0  0  0  0
   -2.2357   -0.5220   -0.2634 C   0  0  0  0  0  0  0  0  0  0  0  0
   -3.1398   -1.4367   -0.7440 O   0  0  0  0  0  0  0  0  0  0  0  0
   -4.3289    1.6668    1.2956 H   0  0  0  0  0  0  0  0  0  0  0  0
   -4.6270    1.2271   -0.4047 H   0  0  0  0  0  0  0  0  0  0  0  0
   -4.6435   -0.0470    0.9268 H   0  0  0  0  0  0  0  0  0  0  0  0
    0.2647    2.0292    1.0771 H   0  0  0  0  0  0  0  0  0  0  0  0
    1.7642   -0.2077   -1.1780 H   0  0  0  0  0  0  0  0  0  0  0  0
    1.7968   -1.0550    0.3762 H   0  0  0  0  0  0  0  0  0  0  0  0
    4.4959   -1.6977    0.7264 H   0  0  0  0  0  0  0  0  0  0  0  0
    4.5541    2.4590   -0.2257 H   0  0  0  0  0  0  0  0  0  0  0  0
    0.6713   -2.1250   -1.1925 H   0  0  0  0  0  0  0  0  0  0  0  0
   -4.1237   -1.2581   -0.6280 H   0  0  0  0  0  0  0  0  0  0  0  0
  1  2  1  0
  2  3  2  0
  3  4  1  0
  4  5  2  0
  5  6  1  0
  6  7  1  0
  7  8  1  0
  8  9  2  0
  8 10  1  0
  8 11  1  0
  5 12  1  0
 12 13  1  0
 13 14  2  0
 12 15  2  0
 15 16  1  0
 15  2  1  0
  1 17  1  0
  1 18  1  0
  1 19  1  0
  4 20  1  0
  6 21  1  0
  6 22  1  0
 10 23  1  0
 11 24  1  0
 13 25  1  0
 16 26  1  0
M  END
$$$$

     RDKit          3D

 26 26  0  0  0  0  0  0  0  0999 V2000
   -4.0985   -1.2635    0.0130 C   0  0  0  0  0  0  0  0  0  0  0  0
   -2.6619   -0.8165    0.0184 C   0  0  0  0  0  0  0  0  0  0  0  0
   -1.7047   -1.7206   -0.1614 N   0  0  0  0  0  0  0  0  0  0  0  0
   -0.4099   -1.3575   -0.1627 C   0  0  0  0  0  0  0  0  0  0  0  0
   -0.0125   -0.0290    0.0225 C   0  0  0  0  0  0  0  0  0  0  0  0
    1.4296    0.3282    0.0096 C   0  0  0  0  0  0  0  0  0  0  0  0
    2.1724   -0.8353   -0.1947 O   0  0  0  0  0  0  0  0  0  0  0  0
    3.8161   -0.5576   -0.2284 P   0  0  0  0  0  5  0  0  0  0  0  0
    4.4787   -1.7310   -0.9405 O   0  0  0  0  0  0  0  0  0  0  0  0
    4.2183    0.8401   -1.0885 O   0  0  0  0  0  0  0  0  0  0  0  0
    4.4586   -0.3793    1.3326 O   0  0  0  0  0  0  0  0  0  0  0  0
   -1.0130    0.8929    0.2070 C   0  0  0  0  0  0  0  0  0  0  0  0
   -0.6645    2.2878    0.4070 C   0  0  0  0  0  0  0  0  0  0  0  0
    0.5161    2.6995    0.4191 O   0  0  0  0  0  0  0  0  0  0  0  0
   -2.3529    0.4926    0.2046 C   0  0  0  0  0  0  0  0  0  0  0  0
   -3.3239    1.4562    0.3940 O   0  0  0  0  0  0  0  0  0  0  0  0
   -4.7192   -0.5553   -0.5402 H   0  0  0  0  0  0  0  0  0  0  0  0
   -4.4053   -1.3453    1.0684 H   0  0  0  0  0  0  0  0  0  0  0  0
   -4.1761   -2.2440   -0.4994 H   0  0  0  0  0  0  0  0  0  0  0  0
    0.3939   -2.0794   -0.3080 H   0  0  0  0  0  0  0  0  0  0  0  0
    1.5938    1.0581   -0.8207 H   0  0  0  0  0  0  0  0  0  0  0  0
    1.7376    0.7456    0.9898 H   0  0  0  0  0  0  0  0  0  0  0  0
    5.2088    0.8341   -1.1976 H   0  0  0  0  0  0  0  0  0  0  0  0
    5.2762   -0.9365    1.3751 H   0  0  0  0  0  0  0  0  0  0  0  0
   -1.4525    3.0071    0.5522 H   0  0  0  0  0  0  0  0  0  0  0  0
   -4.3050    1.2086    0.3992 H   0  0  0  0  0  0  0  0  0  0  0  0
  1  2  1  0
  2  3  2  0
  3  4  1  0
  4  5  2  0
  5  6  1  0
  6  7  1  0
  7  8  1  0
  8  9  2  0
  8 10  1  0
  8 11  1  0
  5 12  1  0
 12 13  1  0
 13 14  2  0
 12 15  2  0
 15 16  1  0
 15  2  1  0
  1 17  1  0
  1 18  1  0
  1 19  1  0
  4 20  1  0
  6 21  1  0
  6 22  1  0
 10 23  1  0
 11 24  1  0
 13 25  1  0
 16 26  1  0
M  END
$$$$

     RDKit          3D

 26 26  0  0  0  0  0  0  0  0999 V2000
   -3.7660    1.8154    0.7880 C   0  0  0  0  0  0  0  0  0  0  0  0
   -2.4409    1.1948    0.4966 C   0  0  0  0  0  0  0  0  0  0  0  0
   -1.2936    1.7391    0.9237 N   0  0  0  0  0  0  0  0  0  0  0  0
   -0.0919    1.2003    0.6747 C   0  0  0  0  0  0  0  0  0  0  0  0
    0.0160    0.0368   -0.0480 C   0  0  0  0  0  0  0  0  0  0  0  0
    1.3336   -0.5790   -0.3310 C   0  0  0  0  0  0  0  0  0  0  0  0
    2.3067    0.2575    0.2593 O   0  0  0  0  0  0  0  0  0  0  0  0
    3.8189   -0.4332   -0.0557 P   0  0  0  0  0  5  0  0  0  0  0  0
    3.7446   -1.0874   -1.4198 O   0  0  0  0  0  0  0  0  0  0  0  0
    5.0436    0.7556   -0.0730 O   0  0  0  0  0  0  0  0  0  0  0  0
    4.1835   -1.6573    1.0547 O   0  0  0  0  0  0  0  0  0  0  0  0
   -1.1386   -0.5819   -0.5226 C   0  0  0  0  0  0  0  0  0  0  0  0
   -1.0059   -1.7962   -1.2785 C   0  0  0  0  0  0  0  0  0  0  0  0
    0.0718   -2.3601   -1.5538 O   0  0  0  0  0  0  0  0  0  0  0  0
   -2.3442    0.0145   -0.2376 C   0  0  0  0  0  0  0  0  0  0  0  0
   -3.5251   -0.5495   -0.6796 O   0  0  0  0  0  0  0  0  0  0  0  0
   -3.7514    2.3714    1.7485 H   0  0  0  0  0  0  0  0  0  0  0  0
   -4.0956    2.5095    0.0109 H   0  0  0  0  0  0  0  0  0  0  0  0
   -4.5509    1.0232    0.9221 H   0  0  0  0  0  0  0  0  0  0  0  0
    0.8394    1.6646    1.0355 H   0  0  0  0  0  0  0  0  0  0  0  0
    1.5633   -0.5888   -1.3951 H   0  0  0  0  0  0  0  0  0  0  0  0
    1.3744   -1.5682    0.1752 H   0  0  0  0  0  0  0  0  0  0  0  0
    4.7472    1.5567    0.4552 H   0  0  0  0  0  0  0  0  0  0  0  0
    4.5342   -1.2908    1.9044 H   0  0  0  0  0  0  0  0  0  0  0  0
   -1.9262   -2.2649   -1.6427 H   0  0  0  0  0  0  0  0  0  0  0  0
   -3.6467   -1.3820   -1.2114 H   0  0  0  0  0  0  0  0  0  0  0  0
  1  2  1  0
  2  3  2  0
  3  4  1  0
  4  5  2  0
  5  6  1  0
  6  7  1  0
  7  8  1  0
  8  9  2  0
  8 10  1  0
  8 11  1  0
  5 12  1  0
 12 13  1  0
 13 14  2  0
 12 15  2  0
 15 16  1  0
 15  2  1  0
  1 17  1  0
  1 18  1  0
  1 19  1  0
  4 20  1  0
  6 21  1  0
  6 22  1  0
 10 23  1  0
 11 24  1  0
 13 25  1  0
 16 26  1  0
M  END
$$$$

     RDKit          3D

 26 26  0  0  0  0  0  0  0  0999 V2000
    4.1271   -1.3637   -0.0934 C   0  0  0  0  0  0  0  0  0  0  0  0
    2.6953   -0.9224    0.0496 C   0  0  0  0  0  0  0  0  0  0  0  0
    1.7971   -1.9204    0.2241 N   0  0  0  0  0  0  0  0  0  0  0  0
    0.4580   -1.6827    0.3670 C   0  0  0  0  0  0  0  0  0  0  0  0
    0.0253   -0.4196    0.3359 C   0  0  0  0  0  0  0  0  0  0  0  0
   -1.3986   -0.0928    0.6438 C   0  0  0  0  0  0  0  0  0  0  0  0
   -2.2148   -0.3583   -0.4467 O   0  0  0  0  0  0  0  0  0  0  0  0
   -3.7721    0.1104   -0.1621 P   0  0  0  0  0  5  0  0  0  0  0  0
   -4.6073   -1.1158    0.1014 O   0  0  0  0  0  0  0  0  0  0  0  0
   -3.8846    1.1894    1.1642 O   0  0  0  0  0  0  0  0  0  0  0  0
   -4.4174    0.9894   -1.4747 O   0  0  0  0  0  0  0  0  0  0  0  0
    0.8853    0.6409    0.1675 C   0  0  0  0  0  0  0  0  0  0  0  0
    0.4437    2.0681    0.2063 C   0  0  0  0  0  0  0  0  0  0  0  0
   -0.7909    2.3927    0.2655 O   0  0  0  0  0  0  0  0  0  0  0  0
    2.2198    0.3510    0.0271 C   0  0  0  0  0  0  0  0  0  0  0  0
    3.1393    1.3961   -0.1508 O   0  0  0  0  0  0  0  0  0  0  0  0
    4.6262   -0.6564   -0.8008 H   0  0  0  0  0  0  0  0  0  0  0  0
    4.2159   -2.3672   -0.5444 H   0  0  0  0  0  0  0  0  0  0  0  0
    4.5935   -1.4157    0.8728 H   0  0  0  0  0  0  0  0  0  0  0  0
   -0.1705   -2.5676    0.5430 H   0  0  0  0  0  0  0  0  0  0  0  0
   -1.7023   -1.0538    1.3517 H   0  0  0  0  0  0  0  0  0  0  0  0
   -1.5970    0.6667    1.3419 H   0  0  0  0  0  0  0  0  0  0  0  0
   -4.7512    1.7173    1.0981 H   0  0  0  0  0  0  0  0  0  0  0  0
   -5.2856    0.5153   -1.7785 H   0  0  0  0  0  0  0  0  0  0  0  0
    1.2344    2.7681    0.1773 H   0  0  0  0  0  0  0  0  0  0  0  0
    4.1314    1.1309   -0.2619 H   0  0  0  0  0  0  0  0  0  0  0  0
  1  2  1  0
  2  3  2  0
  3  4  1  0
  4  5  2  0
  5  6  1  0
  6  7  1  0
  7  8  1  0
  8  9  2  0
  8 10  1  0
  8 11  1  0
  5 12  1  0
 12 13  1  0
 13 14  2  0
 12 15  2  0
 15 16  1  0
 15  2  1  0
  1 17  1  0
  1 18  1  0
  1 19  1  0
  4 20  1  0
  6 21  1  0
  6 22  1  0
 10 23  1  0
 11 24  1  0
 13 25  1  0
 16 26  1  0
M  END
$$$$

     RDKit          3D

 26 26  0  0  0  0  0  0  0  0999 V2000
   -3.7289    1.3077    0.1286 C   0  0  0  0  0  0  0  0  0  0  0  0
   -2.3835    0.6819    0.2387 C   0  0  0  0  0  0  0  0  0  0  0  0
   -1.5984    0.7500    1.3103 N   0  0  0  0  0  0  0  0  0  0  0  0
   -0.4066    0.1345    1.3624 C   0  0  0  0  0  0  0  0  0  0  0  0
    0.0760   -0.6253    0.2697 C   0  0  0  0  0  0  0  0  0  0  0  0
    1.2799   -1.4711    0.4366 C   0  0  0  0  0  0  0  0  0  0  0  0
    2.3569   -0.7711    0.1152 O   0  0  0  0  0  0  0  0  0  0  0  0
    2.8914    0.6325    0.6172 P   0  0  0  0  0  5  0  0  0  0  0  0
    1.8198    1.7339    0.7970 O   0  0  0  0  0  0  0  0  0  0  0  0
    3.8672    0.5827    1.9791 O   0  0  0  0  0  0  0  0  0  0  0  0
    3.8464    1.2793   -0.7087 O   0  0  0  0  0  0  0  0  0  0  0  0
   -0.7516   -0.6737   -0.8098 C   0  0  0  0  0  0  0  0  0  0  0  0
   -0.1986   -1.3057   -2.0031 C   0  0  0  0  0  0  0  0  0  0  0  0
    0.9325   -1.9087   -2.0390 O   0  0  0  0  0  0  0  0  0  0  0  0
   -1.9798   -0.0445   -0.8847 C   0  0  0  0  0  0  0  0  0  0  0  0
   -2.7641   -0.1370   -1.9952 O   0  0  0  0  0  0  0  0  0  0  0  0
   -4.2691    1.0615    1.0707 H   0  0  0  0  0  0  0  0  0  0  0  0
   -3.7132    2.3768   -0.0631 H   0  0  0  0  0  0  0  0  0  0  0  0
   -4.3606    0.8317   -0.6576 H   0  0  0  0  0  0  0  0  0  0  0  0
    0.1839    0.1954    2.2678 H   0  0  0  0  0  0  0  0  0  0  0  0
    1.2282   -2.4667    0.0144 H   0  0  0  0  0  0  0  0  0  0  0  0
    1.2981   -1.7363    1.6008 H   0  0  0  0  0  0  0  0  0  0  0  0
    4.8188    0.5959    1.6901 H   0  0  0  0  0  0  0  0  0  0  0  0
    4.7463    0.9136   -0.5744 H   0  0  0  0  0  0  0  0  0  0  0  0
   -0.7178   -1.3142   -2.9559 H   0  0  0  0  0  0  0  0  0  0  0  0
   -2.4733   -0.6232   -2.8119 H   0  0  0  0  0  0  0  0  0  0  0  0
  1  2  1  0
  2  3  2  0
  3  4  1  0
  4  5  2  0
  5  6  1  0
  6  7  1  0
  7  8  1  0
  8  9  2  0
  8 10  1  0
  8 11  1  0
  5 12  1  0
 12 13  1  0
 13 14  2  0
 12 15  2  0
 15 16  1  0
 15  2  1  0
  1 17  1  0
  1 18  1  0
  1 19  1  0
  4 20  1  0
  6 21  1  0
  6 22  1  0
 10 23  1  0
 11 24  1  0
 13 25  1  0
 16 26  1  0
M  END
$$$$

     RDKit          3D

 26 26  0  0  0  0  0  0  0  0999 V2000
   -3.4512    1.5686    0.7488 C   0  0  0  0  0  0  0  0  0  0  0  0
   -2.1697    0.8294    0.5823 C   0  0  0  0  0  0  0  0  0  0  0  0
   -1.1563    0.9334    1.4352 N   0  0  0  0  0  0  0  0  0  0  0  0
    0.0187    0.2568    1.2840 C   0  0  0  0  0  0  0  0  0  0  0  0
    0.2050   -0.5796    0.2151 C   0  0  0  0  0  0  0  0  0  0  0  0
    1.4351   -1.3653    0.0210 C   0  0  0  0  0  0  0  0  0  0  0  0
    2.4501   -1.1353    0.9084 O   0  0  0  0  0  0  0  0  0  0  0  0
    3.1307    0.3887    0.8649 P   0  0  0  0  0  5  0  0  0  0  0  0
    3.4113    0.8996    2.2660 O   0  0  0  0  0  0  0  0  0  0  0  0
    4.6170    0.3615   -0.0019 O   0  0  0  0  0  0  0  0  0  0  0  0
    2.1677    1.4791    0.0034 O   0  0  0  0  0  0  0  0  0  0  0  0
   -0.8350   -0.7340   -0.7268 C   0  0  0  0  0  0  0  0  0  0  0  0
   -0.6273   -1.6154   -1.8411 C   0  0  0  0  0  0  0  0  0  0  0  0
   -1.4053   -1.8854   -2.7653 O   0  0  0  0  0  0  0  0  0  0  0  0
   -2.0055   -0.0230   -0.5224 C   0  0  0  0  0  0  0  0  0  0  0  0
   -3.0646   -0.1056   -1.3754 O   0  0  0  0  0  0  0  0  0  0  0  0
   -3.4184    2.1795    1.6544 H   0  0  0  0  0  0  0  0  0  0  0  0
   -4.3112    0.8587    0.8433 H   0  0  0  0  0  0  0  0  0  0  0  0
   -3.6802    2.1787   -0.1542 H   0  0  0  0  0  0  0  0  0  0  0  0
    0.7972    0.3587    2.0218 H   0  0  0  0  0  0  0  0  0  0  0  0
    1.8475   -1.0873   -1.0061 H   0  0  0  0  0  0  0  0  0  0  0  0
    1.1579   -2.4458   -0.0480 H   0  0  0  0  0  0  0  0  0  0  0  0
    5.3699    0.2284    0.6434 H   0  0  0  0  0  0  0  0  0  0  0  0
    2.2840    1.2350   -0.9628 H   0  0  0  0  0  0  0  0  0  0  0  0
    0.3489   -2.1294   -1.8980 H   0  0  0  0  0  0  0  0  0  0  0  0
   -3.1165   -0.6500   -2.1900 H   0  0  0  0  0  0  0  0  0  0  0  0
  1  2  1  0
  2  3  2  0
  3  4  1  0
  4  5  2  0
  5  6  1  0
  6  7  1  0
  7  8  1  0
  8  9  2  0
  8 10  1  0
  8 11  1  0
  5 12  1  0
 12 13  1  0
 13 14  2  0
 12 15  2  0
 15 16  1  0
 15  2  1  0
  1 17  1  0
  1 18  1  0
  1 19  1  0
  4 20  1  0
  6 21  1  0
  6 22  1  0
 10 23  1  0
 11 24  1  0
 13 25  1  0
 16 26  1  0
M  END
$$$$

     RDKit          3D

 26 26  0  0  0  0  0  0  0  0999 V2000
   -3.6860    1.5214    1.4096 C   0  0  0  0  0  0  0  0  0  0  0  0
   -2.3754    0.9885    0.9011 C   0  0  0  0  0  0  0  0  0  0  0  0
   -1.2030    1.5050    1.3105 N   0  0  0  0  0  0  0  0  0  0  0  0
   -0.0136    1.0511    0.8744 C   0  0  0  0  0  0  0  0  0  0  0  0
    0.0741    0.0146   -0.0310 C   0  0  0  0  0  0  0  0  0  0  0  0
    1.4016   -0.4815   -0.5086 C   0  0  0  0  0  0  0  0  0  0  0  0
    2.4068    0.2623    0.1044 O   0  0  0  0  0  0  0  0  0  0  0  0
    3.9381   -0.2067   -0.3566 P   0  0  0  0  0  5  0  0  0  0  0  0
    4.2434    0.4309   -1.7038 O   0  0  0  0  0  0  0  0  0  0  0  0
    4.1075   -1.8808   -0.4534 O   0  0  0  0  0  0  0  0  0  0  0  0
    5.0875    0.3748    0.7317 O   0  0  0  0  0  0  0  0  0  0  0  0
   -1.1124   -0.5349   -0.4687 C   0  0  0  0  0  0  0  0  0  0  0  0
   -1.0729   -1.6305   -1.4239 C   0  0  0  0  0  0  0  0  0  0  0  0
   -2.1562   -2.1245   -1.8168 O   0  0  0  0  0  0  0  0  0  0  0  0
   -2.3343   -0.0494   -0.0040 C   0  0  0  0  0  0  0  0  0  0  0  0
   -3.5287   -0.5948   -0.4377 O   0  0  0  0  0  0  0  0  0  0  0  0
   -3.5462    2.5051    1.8942 H   0  0  0  0  0  0  0  0  0  0  0  0
   -4.1530    0.8450    2.1382 H   0  0  0  0  0  0  0  0  0  0  0  0
   -4.3489    1.7099    0.5261 H   0  0  0  0  0  0  0  0  0  0  0  0
    0.9225    1.4825    1.2179 H   0  0  0  0  0  0  0  0  0  0  0  0
    1.4624   -1.5522   -0.2597 H   0  0  0  0  0  0  0  0  0  0  0  0
    1.4907   -0.3219   -1.6004 H   0  0  0  0  0  0  0  0  0  0  0  0
    4.1563   -2.2233   -1.3681 H   0  0  0  0  0  0  0  0  0  0  0  0
    4.7897    1.1728    1.2205 H   0  0  0  0  0  0  0  0  0  0  0  0
   -0.1485   -2.0314   -1.8048 H   0  0  0  0  0  0  0  0  0  0  0  0
   -4.4016   -0.2320   -0.0914 H   0  0  0  0  0  0  0  0  0  0  0  0
  1  2  1  0
  2  3  2  0
  3  4  1  0
  4  5  2  0
  5  6  1  0
  6  7  1  0
  7  8  1  0
  8  9  2  0
  8 10  1  0
  8 11  1  0
  5 12  1  0
 12 13  1  0
 13 14  2  0
 12 15  2  0
 15 16  1  0
 15  2  1  0
  1 17  1  0
  1 18  1  0
  1 19  1  0
  4 20  1  0
  6 21  1  0
  6 22  1  0
 10 23  1  0
 11 24  1  0
 13 25  1  0
 16 26  1  0
M  END
$$$$

     RDKit          3D

 26 26  0  0  0  0  0  0  0  0999 V2000
    4.1024    0.6494    0.9923 C   0  0  0  0  0  0  0  0  0  0  0  0
    2.6599    0.4713    0.7479 C   0  0  0  0  0  0  0  0  0  0  0  0
    1.7210    1.2602    1.2805 N   0  0  0  0  0  0  0  0  0  0  0  0
    0.4220    1.0434    1.0173 C   0  0  0  0  0  0  0  0  0  0  0  0
   -0.0067    0.0258    0.2071 C   0  0  0  0  0  0  0  0  0  0  0  0
   -1.4746   -0.1564   -0.0424 C   0  0  0  0  0  0  0  0  0  0  0  0
   -2.1746    0.8071    0.6417 O   0  0  0  0  0  0  0  0  0  0  0  0
   -3.8180    0.5755    0.3413 P   0  0  0  0  0  5  0  0  0  0  0  0
   -4.1992   -0.8175    0.7740 O   0  0  0  0  0  0  0  0  0  0  0  0
   -4.7176    1.7339    1.1895 O   0  0  0  0  0  0  0  0  0  0  0  0
   -4.0663    0.7896   -1.3236 O   0  0  0  0  0  0  0  0  0  0  0  0
    0.9403   -0.8285   -0.3750 C   0  0  0  0  0  0  0  0  0  0  0  0
    0.4493   -1.8944   -1.2267 C   0  0  0  0  0  0  0  0  0  0  0  0
    1.1408   -2.7412   -1.8222 O   0  0  0  0  0  0  0  0  0  0  0  0
    2.2658   -0.5823   -0.0872 C   0  0  0  0  0  0  0  0  0  0  0  0
    3.2513   -1.3600   -0.6078 O   0  0  0  0  0  0  0  0  0  0  0  0
    4.4820   -0.1521    1.6490 H   0  0  0  0  0  0  0  0  0  0  0  0
    4.7130    0.6230    0.0603 H   0  0  0  0  0  0  0  0  0  0  0  0
    4.2566    1.6706    1.4213 H   0  0  0  0  0  0  0  0  0  0  0  0
   -0.3601    1.6878    1.4512 H   0  0  0  0  0  0  0  0  0  0  0  0
   -1.7750   -1.1918    0.2039 H   0  0  0  0  0  0  0  0  0  0  0  0
   -1.7020   -0.0419   -1.1427 H   0  0  0  0  0  0  0  0  0  0  0  0
   -4.3348    2.6233    0.9374 H   0  0  0  0  0  0  0  0  0  0  0  0
   -4.2407   -0.1098   -1.7071 H   0  0  0  0  0  0  0  0  0  0  0  0
   -0.6495   -1.9608   -1.3599 H   0  0  0  0  0  0  0  0  0  0  0  0
    3.1146   -2.1247   -1.2027 H   0  0  0  0  0  0  0  0  0  0  0  0
  1  2  1  0
  2  3  2  0
  3  4  1  0
  4  5  2  0
  5  6  1  0
  6  7  1  0
  7  8  1  0
  8  9  2  0
  8 10  1  0
  8 11  1  0
  5 12  1  0
 12 13  1  0
 13 14  2  0
 12 15  2  0
 15 16  1  0
 15  2  1  0
  1 17  1  0
  1 18  1  0
  1 19  1  0
  4 20  1  0
  6 21  1  0
  6 22  1  0
 10 23  1  0
 11 24  1  0
 13 25  1  0
 16 26  1  0
M  END
$$$$

     RDKit          3D

 26 26  0  0  0  0  0  0  0  0999 V2000
   -4.1079    1.1482    0.1237 C   0  0  0  0  0  0  0  0  0  0  0  0
   -2.6763    0.7732    0.0655 C   0  0  0  0  0  0  0  0  0  0  0  0
   -1.7326    1.7021   -0.1653 N   0  0  0  0  0  0  0  0  0  0  0  0
   -0.4252    1.3969   -0.2245 C   0  0  0  0  0  0  0  0  0  0  0  0
   -0.0109    0.1070   -0.0480 C   0  0  0  0  0  0  0  0  0  0  0  0
    1.4079   -0.2651   -0.1074 C   0  0  0  0  0  0  0  0  0  0  0  0
    2.1420    0.9231   -0.3608 O   0  0  0  0  0  0  0  0  0  0  0  0
    3.7884    0.5179   -0.4341 P   0  0  0  0  0  5  0  0  0  0  0  0
    3.8677   -0.9060   -0.9685 O   0  0  0  0  0  0  0  0  0  0  0  0
    4.5068    0.5731    1.0860 O   0  0  0  0  0  0  0  0  0  0  0  0
    4.5523    1.5780   -1.4724 O   0  0  0  0  0  0  0  0  0  0  0  0
   -0.9790   -0.8659    0.1922 C   0  0  0  0  0  0  0  0  0  0  0  0
   -0.5245   -2.2164    0.3765 C   0  0  0  0  0  0  0  0  0  0  0  0
    0.6835   -2.5906    0.3373 O   0  0  0  0  0  0  0  0  0  0  0  0
   -2.3312   -0.5725    0.2570 C   0  0  0  0  0  0  0  0  0  0  0  0
   -3.3191   -1.5129    0.4935 O   0  0  0  0  0  0  0  0  0  0  0  0
   -4.5729    0.7006    1.0244 H   0  0  0  0  0  0  0  0  0  0  0  0
   -4.1875    2.2553    0.1727 H   0  0  0  0  0  0  0  0  0  0  0  0
   -4.6360    0.7556   -0.7548 H   0  0  0  0  0  0  0  0  0  0  0  0
    0.3395    2.1562   -0.4127 H   0  0  0  0  0  0  0  0  0  0  0  0
    1.6639   -0.9469   -0.9503 H   0  0  0  0  0  0  0  0  0  0  0  0
    1.7770   -0.6205    0.8600 H   0  0  0  0  0  0  0  0  0  0  0  0
    3.8532    0.2249    1.7405 H   0  0  0  0  0  0  0  0  0  0  0  0
    5.2572    1.1658   -2.0289 H   0  0  0  0  0  0  0  0  0  0  0  0
   -1.2309   -3.0068    0.5654 H   0  0  0  0  0  0  0  0  0  0  0  0
   -3.1051   -2.4743    0.6329 H   0  0  0  0  0  0  0  0  0  0  0  0
  1  2  1  0
  2  3  2  0
  3  4  1  0
  4  5  2  0
  5  6  1  0
  6  7  1  0
  7  8  1  0
  8  9  2  0
  8 10  1  0
  8 11  1  0
  5 12  1  0
 12 13  1  0
 13 14  2  0
 12 15  2  0
 15 16  1  0
 15  2  1  0
  1 17  1  0
  1 18  1  0
  1 19  1  0
  4 20  1  0
  6 21  1  0
  6 22  1  0
 10 23  1  0
 11 24  1  0
 13 25  1  0
 16 26  1  0
M  END
$$$$

     RDKit          3D

 26 26  0  0  0  0  0  0  0  0999 V2000
   -4.1301   -0.8107    0.5899 C   0  0  0  0  0  0  0  0  0  0  0  0
   -2.6846   -0.5960    0.3142 C   0  0  0  0  0  0  0  0  0  0  0  0
   -1.8548   -1.6180    0.0996 N   0  0  0  0  0  0  0  0  0  0  0  0
   -0.5463   -1.4768   -0.1526 C   0  0  0  0  0  0  0  0  0  0  0  0
   -0.0160   -0.2135   -0.1955 C   0  0  0  0  0  0  0  0  0  0  0  0
    1.4234   -0.0197   -0.4711 C   0  0  0  0  0  0  0  0  0  0  0  0
    2.1060   -1.1924   -0.6639 O   0  0  0  0  0  0  0  0  0  0  0  0
    3.7268   -0.8101   -0.9661 P   0  0  0  0  0  5  0  0  0  0  0  0
    4.1226   -1.1855   -2.3856 O   0  0  0  0  0  0  0  0  0  0  0  0
    4.6867   -1.6566    0.1190 O   0  0  0  0  0  0  0  0  0  0  0  0
    3.9965    0.8640   -0.7634 O   0  0  0  0  0  0  0  0  0  0  0  0
   -0.8443    0.8955    0.0230 C   0  0  0  0  0  0  0  0  0  0  0  0
   -0.2192    2.1984   -0.0367 C   0  0  0  0  0  0  0  0  0  0  0  0
   -0.8597    3.2468    0.1418 O   0  0  0  0  0  0  0  0  0  0  0  0
   -2.1785    0.7183    0.2786 C   0  0  0  0  0  0  0  0  0  0  0  0
   -3.0664    1.7311    0.5042 O   0  0  0  0  0  0  0  0  0  0  0  0
   -4.4759   -1.7546    0.1217 H   0  0  0  0  0  0  0  0  0  0  0  0
   -4.2792   -0.8246    1.6832 H   0  0  0  0  0  0  0  0  0  0  0  0
   -4.6757    0.0658    0.1964 H   0  0  0  0  0  0  0  0  0  0  0  0
    0.0903   -2.3581   -0.3220 H   0  0  0  0  0  0  0  0  0  0  0  0
    1.8930    0.5927    0.3343 H   0  0  0  0  0  0  0  0  0  0  0  0
    1.5398    0.5906   -1.4070 H   0  0  0  0  0  0  0  0  0  0  0  0
    4.2413   -2.4953    0.4030 H   0  0  0  0  0  0  0  0  0  0  0  0
    4.1003    1.0878    0.1969 H   0  0  0  0  0  0  0  0  0  0  0  0
    0.8471    2.3187   -0.2420 H   0  0  0  0  0  0  0  0  0  0  0  0
   -2.9429    2.7021    0.5275 H   0  0  0  0  0  0  0  0  0  0  0  0
  1  2  1  0
  2  3  2  0
  3  4  1  0
  4  5  2  0
  5  6  1  0
  6  7  1  0
  7  8  1  0
  8  9  2  0
  8 10  1  0
  8 11  1  0
  5 12  1  0
 12 13  1  0
 13 14  2  0
 12 15  2  0
 15 16  1  0
 15  2  1  0
  1 17  1  0
  1 18  1  0
  1 19  1  0
  4 20  1  0
  6 21  1  0
  6 22  1  0
 10 23  1  0
 11 24  1  0
 13 25  1  0
 16 26  1  0
M  END
$$$$

     RDKit          3D

 26 26  0  0  0  0  0  0  0  0999 V2000
   -4.1348    0.6977    0.5966 C   0  0  0  0  0  0  0  0  0  0  0  0
   -2.6573    0.4921    0.4345 C   0  0  0  0  0  0  0  0  0  0  0  0
   -1.7484    1.2089    1.1112 N   0  0  0  0  0  0  0  0  0  0  0  0
   -0.4235    1.0310    0.9716 C   0  0  0  0  0  0  0  0  0  0  0  0
    0.0926    0.0771    0.1028 C   0  0  0  0  0  0  0  0  0  0  0  0
    1.5316   -0.1499   -0.0735 C   0  0  0  0  0  0  0  0  0  0  0  0
    2.2615    0.7412    0.7520 O   0  0  0  0  0  0  0  0  0  0  0  0
    3.9101    0.5204    0.5857 P   0  0  0  0  0  5  0  0  0  0  0  0
    4.6303    0.8506    1.8723 O   0  0  0  0  0  0  0  0  0  0  0  0
    4.5631    1.5274   -0.6242 O   0  0  0  0  0  0  0  0  0  0  0  0
    4.2613   -1.0959    0.2230 O   0  0  0  0  0  0  0  0  0  0  0  0
   -0.8113   -0.6775   -0.6088 C   0  0  0  0  0  0  0  0  0  0  0  0
   -0.3463   -1.6827   -1.5297 C   0  0  0  0  0  0  0  0  0  0  0  0
    0.8505   -1.9456   -1.7517 O   0  0  0  0  0  0  0  0  0  0  0  0
   -2.1907   -0.4659   -0.4390 C   0  0  0  0  0  0  0  0  0  0  0  0
   -3.0927   -1.2236   -1.1531 O   0  0  0  0  0  0  0  0  0  0  0  0
   -4.3240    1.6558    1.1381 H   0  0  0  0  0  0  0  0  0  0  0  0
   -4.5660    0.8313   -0.4184 H   0  0  0  0  0  0  0  0  0  0  0  0
   -4.5980   -0.1391    1.1166 H   0  0  0  0  0  0  0  0  0  0  0  0
    0.3176    1.6119    1.5201 H   0  0  0  0  0  0  0  0  0  0  0  0
    1.8197   -1.1855    0.2123 H   0  0  0  0  0  0  0  0  0  0  0  0
    1.9108    0.0312   -1.0971 H   0  0  0  0  0  0  0  0  0  0  0  0
    3.9068    2.2252   -0.8829 H   0  0  0  0  0  0  0  0  0  0  0  0
    4.0115   -1.6316    1.0241 H   0  0  0  0  0  0  0  0  0  0  0  0
   -1.0979   -2.2485   -2.0662 H   0  0  0  0  0  0  0  0  0  0  0  0
   -4.0766   -1.0559   -1.0165 H   0  0  0  0  0  0  0  0  0  0  0  0
  1  2  1  0
  2  3  2  0
  3  4  1  0
  4  5  2  0
  5  6  1  0
  6  7  1  0
  7  8  1  0
  8  9  2  0
  8 10  1  0
  8 11  1  0
  5 12  1  0
 12 13  1  0
 13 14  2  0
 12 15  2  0
 15 16  1  0
 15  2  1  0
  1 17  1  0
  1 18  1  0
  1 19  1  0
  4 20  1  0
  6 21  1  0
  6 22  1  0
 10 23  1  0
 11 24  1  0
 13 25  1  0
 16 26  1  0
M  END
$$$$

     RDKit          3D

 26 26  0  0  0  0  0  0  0  0999 V2000
   -3.4675   -0.7798   -1.7125 C   0  0  0  0  0  0  0  0  0  0  0  0
   -2.3265   -0.6757   -0.7465 C   0  0  0  0  0  0  0  0  0  0  0  0
   -1.3386   -1.5445   -0.9020 N   0  0  0  0  0  0  0  0  0  0  0  0
   -0.1247   -1.4516   -0.2413 C   0  0  0  0  0  0  0  0  0  0  0  0
   -0.1184   -0.3357    0.6547 C   0  0  0  0  0  0  0  0  0  0  0  0
    1.2406   -0.1769    1.3672 C   0  0  0  0  0  0  0  0  0  0  0  0
    1.9757   -0.0929    0.2250 O   0  0  0  0  0  0  0  0  0  0  0  0
    3.4834    0.0477   -0.1228 P   0  0  0  0  0  5  0  0  0  0  0  0
    4.4869   -0.1838    0.9667 O   0  0  0  0  0  0  0  0  0  0  0  0
    3.8583    1.5427   -0.8998 O   0  0  0  0  0  0  0  0  0  0  0  0
    3.7837   -1.1263   -1.4114 O   0  0  0  0  0  0  0  0  0  0  0  0
   -1.1211    0.5281    0.8283 C   0  0  0  0  0  0  0  0  0  0  0  0
   -0.9835    1.5456    1.8646 C   0  0  0  0  0  0  0  0  0  0  0  0
   -2.0872    2.2231    2.1242 O   0  0  0  0  0  0  0  0  0  0  0  0
   -2.2594    0.3850    0.0902 C   0  0  0  0  0  0  0  0  0  0  0  0
   -3.3502    1.2432    0.1375 O   0  0  0  0  0  0  0  0  0  0  0  0
   -3.0028   -0.5443   -2.7211 H   0  0  0  0  0  0  0  0  0  0  0  0
   -3.8531   -1.8076   -1.7848 H   0  0  0  0  0  0  0  0  0  0  0  0
   -4.2291   -0.0523   -1.5014 H   0  0  0  0  0  0  0  0  0  0  0  0
    0.6651   -2.1441   -0.2752 H   0  0  0  0  0  0  0  0  0  0  0  0
    1.3074    0.5052    2.1439 H   0  0  0  0  0  0  0  0  0  0  0  0
    1.4641   -1.2780    1.7705 H   0  0  0  0  0  0  0  0  0  0  0  0
    4.7953    1.4189   -1.2687 H   0  0  0  0  0  0  0  0  0  0  0  0
    4.6894   -1.2616   -1.5777 H   0  0  0  0  0  0  0  0  0  0  0  0
   -0.1417    1.8322    2.4479 H   0  0  0  0  0  0  0  0  0  0  0  0
   -3.3461    2.1835    0.5446 H   0  0  0  0  0  0  0  0  0  0  0  0
  1  2  1  0
  2  3  2  0
  3  4  1  0
  4  5  2  0
  5  6  1  0
  6  7  1  0
  7  8  1  0
  8  9  2  0
  8 10  1  0
  8 11  1  0
  5 12  1  0
 12 13  1  0
 13 14  2  0
 12 15  2  0
 15 16  1  0
 15  2  1  0
  1 17  1  0
  1 18  1  0
  1 19  1  0
  4 20  1  0
  6 21  1  0
  6 22  1  0
 10 23  1  0
 11 24  1  0
 13 25  1  0
 16 26  1  0
M  END
$$$$

     RDKit          3D

 26 26  0  0  0  0  0  0  0  0999 V2000
   -3.9277    1.6832   -0.0038 C   0  0  0  0  0  0  0  0  0  0  0  0
   -2.5454    1.1496    0.0090 C   0  0  0  0  0  0  0  0  0  0  0  0
   -1.5759    1.7825    0.6501 N   0  0  0  0  0  0  0  0  0  0  0  0
   -0.3269    1.2927    0.6566 C   0  0  0  0  0  0  0  0  0  0  0  0
    0.0102    0.1079   -0.0025 C   0  0  0  0  0  0  0  0  0  0  0  0
    1.4052   -0.3894    0.0194 C   0  0  0  0  0  0  0  0  0  0  0  0
    2.1573    0.5053    0.7923 O   0  0  0  0  0  0  0  0  0  0  0  0
    3.7760    0.0322    0.8856 P   0  0  0  0  0  5  0  0  0  0  0  0
    4.6013    1.2047    1.3626 O   0  0  0  0  0  0  0  0  0  0  0  0
    3.9800   -1.2085    2.0265 O   0  0  0  0  0  0  0  0  0  0  0  0
    4.3293   -0.5598   -0.5981 O   0  0  0  0  0  0  0  0  0  0  0  0
   -1.0022   -0.5429   -0.6650 C   0  0  0  0  0  0  0  0  0  0  0  0
   -0.7135   -1.7831   -1.3609 C   0  0  0  0  0  0  0  0  0  0  0  0
    0.4549   -2.2327   -1.3455 O   0  0  0  0  0  0  0  0  0  0  0  0
   -2.3070   -0.0366   -0.6755 C   0  0  0  0  0  0  0  0  0  0  0  0
   -3.3076   -0.6942   -1.3400 O   0  0  0  0  0  0  0  0  0  0  0  0
   -4.6724    0.8752   -0.1389 H   0  0  0  0  0  0  0  0  0  0  0  0
   -4.1131    2.1634    0.9606 H   0  0  0  0  0  0  0  0  0  0  0  0
   -4.0264    2.4460   -0.7922 H   0  0  0  0  0  0  0  0  0  0  0  0
    0.4629    1.8218    1.1874 H   0  0  0  0  0  0  0  0  0  0  0  0
    1.8376   -0.4828   -0.9996 H   0  0  0  0  0  0  0  0  0  0  0  0
    1.5121   -1.3709    0.5151 H   0  0  0  0  0  0  0  0  0  0  0  0
    3.9161   -2.0756    1.5591 H   0  0  0  0  0  0  0  0  0  0  0  0
    4.7187    0.2170   -1.0883 H   0  0  0  0  0  0  0  0  0  0  0  0
   -1.4399   -2.3654   -1.9045 H   0  0  0  0  0  0  0  0  0  0  0  0
   -3.2038   -1.5393   -1.8445 H   0  0  0  0  0  0  0  0  0  0  0  0
  1  2  1  0
  2  3  2  0
  3  4  1  0
  4  5  2  0
  5  6  1  0
  6  7  1  0
  7  8  1  0
  8  9  2  0
  8 10  1  0
  8 11  1  0
  5 12  1  0
 12 13  1  0
 13 14  2  0
 12 15  2  0
 15 16  1  0
 15  2  1  0
  1 17  1  0
  1 18  1  0
  1 19  1  0
  4 20  1  0
  6 21  1  0
  6 22  1  0
 10 23  1  0
 11 24  1  0
 13 25  1  0
 16 26  1  0
M  END
$$$$

     RDKit          3D

 26 26  0  0  0  0  0  0  0  0999 V2000
    4.2302    0.5862    0.3383 C   0  0  0  0  0  0  0  0  0  0  0  0
    2.7321    0.4772    0.4387 C   0  0  0  0  0  0  0  0  0  0  0  0
    1.9985    1.3154    1.2223 N   0  0  0  0  0  0  0  0  0  0  0  0
    0.6399    1.2822    1.2835 C   0  0  0  0  0  0  0  0  0  0  0  0
   -0.0697    0.3735    0.5492 C   0  0  0  0  0  0  0  0  0  0  0  0
   -1.5246    0.3503    0.4234 C   0  0  0  0  0  0  0  0  0  0  0  0
   -2.2385    0.1692    1.6239 O   0  0  0  0  0  0  0  0  0  0  0  0
   -3.8762   -0.0617    1.0941 P   0  0  0  0  0  5  0  0  0  0  0  0
   -4.8157   -0.2904    2.2303 O   0  0  0  0  0  0  0  0  0  0  0  0
   -4.0461   -1.2735   -0.0176 O   0  0  0  0  0  0  0  0  0  0  0  0
   -4.2629    1.4703    0.3797 O   0  0  0  0  0  0  0  0  0  0  0  0
    0.6421   -0.5079   -0.2566 C   0  0  0  0  0  0  0  0  0  0  0  0
    0.0334   -1.5929   -1.0656 C   0  0  0  0  0  0  0  0  0  0  0  0
   -1.1610   -1.7447   -1.1498 O   0  0  0  0  0  0  0  0  0  0  0  0
    2.0511   -0.4335   -0.2947 C   0  0  0  0  0  0  0  0  0  0  0  0
    2.5912   -1.3692   -1.1450 O   0  0  0  0  0  0  0  0  0  0  0  0
    4.4059    0.8380   -0.7640 H   0  0  0  0  0  0  0  0  0  0  0  0
    4.7090   -0.4109    0.5407 H   0  0  0  0  0  0  0  0  0  0  0  0
    4.5678    1.3912    0.9856 H   0  0  0  0  0  0  0  0  0  0  0  0
    0.0974    2.1128    1.8223 H   0  0  0  0  0  0  0  0  0  0  0  0
   -1.9998   -0.0990   -0.3639 H   0  0  0  0  0  0  0  0  0  0  0  0
   -1.7707    1.5682    0.3403 H   0  0  0  0  0  0  0  0  0  0  0  0
   -3.5510   -2.0876    0.0807 H   0  0  0  0  0  0  0  0  0  0  0  0
   -3.6142    1.5643   -0.3998 H   0  0  0  0  0  0  0  0  0  0  0  0
    0.7307   -2.2814   -1.6136 H   0  0  0  0  0  0  0  0  0  0  0  0
    3.5012   -1.3462   -1.5383 H   0  0  0  0  0  0  0  0  0  0  0  0
  1  2  1  0
  2  3  2  0
  3  4  1  0
  4  5  2  0
  5  6  1  0
  6  7  1  0
  7  8  1  0
  8  9  2  0
  8 10  1  0
  8 11  1  0
  5 12  1  0
 12 13  1  0
 13 14  2  0
 12 15  2  0
 15 16  1  0
 15  2  1  0
  1 17  1  0
  1 18  1  0
  1 19  1  0
  4 20  1  0
  6 21  1  0
  6 22  1  0
 10 23  1  0
 11 24  1  0
 13 25  1  0
 16 26  1  0
M  END
$$$$

     RDKit          3D

 26 26  0  0  0  0  0  0  0  0999 V2000
   -4.2636   -0.6506    0.1375 C   0  0  0  0  0  0  0  0  0  0  0  0
   -2.8248   -0.5666    0.0508 C   0  0  0  0  0  0  0  0  0  0  0  0
   -2.1198   -1.2322   -0.9373 N   0  0  0  0  0  0  0  0  0  0  0  0
   -0.7989   -1.1110   -1.0551 C   0  0  0  0  0  0  0  0  0  0  0  0
   -0.0650   -0.3354   -0.2118 C   0  0  0  0  0  0  0  0  0  0  0  0
    1.3660   -0.2943   -0.0418 C   0  0  0  0  0  0  0  0  0  0  0  0
    2.1147    0.3164   -1.0364 O   0  0  0  0  0  0  0  0  0  0  0  0
    3.7351    0.4164   -0.5582 P   0  0  0  0  0  5  0  0  0  0  0  0
    3.7042    1.4082    0.6242 O   0  0  0  0  0  0  0  0  0  0  0  0
    4.3248   -1.0242   -0.0164 O   0  0  0  0  0  0  0  0  0  0  0  0
    4.6117    1.1421   -1.7919 O   0  0  0  0  0  0  0  0  0  0  0  0
   -0.8097    0.3570    0.8328 C   0  0  0  0  0  0  0  0  0  0  0  0
    0.0447    1.1206    1.7395 C   0  0  0  0  0  0  0  0  0  0  0  0
   -0.4342    1.7220    2.7418 O   0  0  0  0  0  0  0  0  0  0  0  0
   -2.1030    0.2467    0.9425 C   0  0  0  0  0  0  0  0  0  0  0  0
   -2.9179    0.9156    1.9025 O   0  0  0  0  0  0  0  0  0  0  0  0
   -4.6462   -1.3989    0.8343 H   0  0  0  0  0  0  0  0  0  0  0  0
   -4.7230    0.3764    0.3475 H   0  0  0  0  0  0  0  0  0  0  0  0
   -4.7038   -0.9255   -0.8662 H   0  0  0  0  0  0  0  0  0  0  0  0
   -0.2783   -1.6437   -1.8313 H   0  0  0  0  0  0  0  0  0  0  0  0
    1.6545   -1.5002   -0.4029 H   0  0  0  0  0  0  0  0  0  0  0  0
    1.7117   -0.4510    0.9707 H   0  0  0  0  0  0  0  0  0  0  0  0
    3.9349   -1.7761   -0.5511 H   0  0  0  0  0  0  0  0  0  0  0  0
    4.8531    2.0608   -1.6473 H   0  0  0  0  0  0  0  0  0  0  0  0
    1.0956    1.2314    1.6077 H   0  0  0  0  0  0  0  0  0  0  0  0
   -2.4628    1.5958    2.4845 H   0  0  0  0  0  0  0  0  0  0  0  0
  1  2  1  0
  2  3  2  0
  3  4  1  0
  4  5  2  0
  5  6  1  0
  6  7  1  0
  7  8  1  0
  8  9  2  0
  8 10  1  0
  8 11  1  0
  5 12  1  0
 12 13  1  0
 13 14  2  0
 12 15  2  0
 15 16  1  0
 15  2  1  0
  1 17  1  0
  1 18  1  0
  1 19  1  0
  4 20  1  0
  6 21  1  0
  6 22  1  0
 10 23  1  0
 11 24  1  0
 13 25  1  0
 16 26  1  0
M  END
$$$$

     RDKit          3D

 26 26  0  0  0  0  0  0  0  0999 V2000
    4.1672    0.7348   -0.2515 C   0  0  0  0  0  0  0  0  0  0  0  0
    2.6935    0.4678   -0.3023 C   0  0  0  0  0  0  0  0  0  0  0  0
    1.8213    1.4721   -0.6275 N   0  0  0  0  0  0  0  0  0  0  0  0
    0.5145    1.3130   -0.5367 C   0  0  0  0  0  0  0  0  0  0  0  0
   -0.0377    0.0756   -0.0957 C   0  0  0  0  0  0  0  0  0  0  0  0
   -1.4892   -0.0872   -0.1902 C   0  0  0  0  0  0  0  0  0  0  0  0
   -2.1671    0.7648    0.6690 O   0  0  0  0  0  0  0  0  0  0  0  0
   -3.8212    0.7073    0.3488 P   0  0  0  0  0  5  0  0  0  0  0  0
   -4.7056    0.7926    1.5550 O   0  0  0  0  0  0  0  0  0  0  0  0
   -4.0475    2.1686   -0.5838 O   0  0  0  0  0  0  0  0  0  0  0  0
   -4.1549   -0.5785   -0.6713 O   0  0  0  0  0  0  0  0  0  0  0  0
    0.8208   -0.8782    0.1762 C   0  0  0  0  0  0  0  0  0  0  0  0
    0.2747   -2.0584    0.9728 C   0  0  0  0  0  0  0  0  0  0  0  0
   -0.9458   -2.2557    1.0555 O   0  0  0  0  0  0  0  0  0  0  0  0
    2.1750   -0.7355    0.0841 C   0  0  0  0  0  0  0  0  0  0  0  0
    3.0029   -1.7727    0.3970 O   0  0  0  0  0  0  0  0  0  0  0  0
    4.6169   -0.1344    0.2741 H   0  0  0  0  0  0  0  0  0  0  0  0
    4.6422    1.0025   -1.1849 H   0  0  0  0  0  0  0  0  0  0  0  0
    4.3484    1.5719    0.5261 H   0  0  0  0  0  0  0  0  0  0  0  0
   -0.1758    2.1324   -0.7528 H   0  0  0  0  0  0  0  0  0  0  0  0
   -1.9364   -1.0237   -0.3828 H   0  0  0  0  0  0  0  0  0  0  0  0
   -1.7268    0.4295   -1.2946 H   0  0  0  0  0  0  0  0  0  0  0  0
   -3.2623    2.7309   -0.2871 H   0  0  0  0  0  0  0  0  0  0  0  0
   -4.2500   -1.4495   -0.1959 H   0  0  0  0  0  0  0  0  0  0  0  0
    0.9756   -2.6934    1.4651 H   0  0  0  0  0  0  0  0  0  0  0  0
    2.6674   -2.6965    0.6518 H   0  0  0  0  0  0  0  0  0  0  0  0
  1  2  1  0
  2  3  2  0
  3  4  1  0
  4  5  2  0
  5  6  1  0
  6  7  1  0
  7  8  1  0
  8  9  2  0
  8 10  1  0
  8 11  1  0
  5 12  1  0
 12 13  1  0
 13 14  2  0
 12 15  2  0
 15 16  1  0
 15  2  1  0
  1 17  1  0
  1 18  1  0
  1 19  1  0
  4 20  1  0
  6 21  1  0
  6 22  1  0
 10 23  1  0
 11 24  1  0
 13 25  1  0
 16 26  1  0
M  END
$$$$

     RDKit          3D

 26 26  0  0  0  0  0  0  0  0999 V2000
    4.3119    0.4792   -0.3276 C   0  0  0  0  0  0  0  0  0  0  0  0
    2.7906    0.4922   -0.3009 C   0  0  0  0  0  0  0  0  0  0  0  0
    2.0653    1.4292   -0.8627 N   0  0  0  0  0  0  0  0  0  0  0  0
    0.7094    1.4122   -0.8341 C   0  0  0  0  0  0  0  0  0  0  0  0
    0.0542    0.3804   -0.1936 C   0  0  0  0  0  0  0  0  0  0  0  0
   -1.4034    0.1571   -0.3320 C   0  0  0  0  0  0  0  0  0  0  0  0
   -2.2022    0.9694    0.4247 O   0  0  0  0  0  0  0  0  0  0  0  0
   -3.7902    0.3793    0.1102 P   0  0  0  0  0  5  0  0  0  0  0  0
   -3.8759   -0.1050   -1.3303 O   0  0  0  0  0  0  0  0  0  0  0  0
   -4.0844   -0.8608    1.1861 O   0  0  0  0  0  0  0  0  0  0  0  0
   -4.8694    1.6642    0.3179 O   0  0  0  0  0  0  0  0  0  0  0  0
    0.7965   -0.6381    0.4315 C   0  0  0  0  0  0  0  0  0  0  0  0
    0.0292   -1.6778    1.1200 C   0  0  0  0  0  0  0  0  0  0  0  0
    0.6726   -2.6646    1.6227 O   0  0  0  0  0  0  0  0  0  0  0  0
    2.1461   -0.5641    0.3535 C   0  0  0  0  0  0  0  0  0  0  0  0
    2.9979   -1.4698    0.8937 O   0  0  0  0  0  0  0  0  0  0  0  0
    4.7643    0.2483    0.6347 H   0  0  0  0  0  0  0  0  0  0  0  0
    4.6535    1.3723   -0.8297 H   0  0  0  0  0  0  0  0  0  0  0  0
    4.5576   -0.3875   -1.0338 H   0  0  0  0  0  0  0  0  0  0  0  0
    0.2460    2.2028   -1.3476 H   0  0  0  0  0  0  0  0  0  0  0  0
   -1.7551   -0.7912   -0.7445 H   0  0  0  0  0  0  0  0  0  0  0  0
   -1.5725    0.8427   -1.3952 H   0  0  0  0  0  0  0  0  0  0  0  0
   -4.5063   -1.6252    0.6958 H   0  0  0  0  0  0  0  0  0  0  0  0
   -4.3792    2.5312    0.2368 H   0  0  0  0  0  0  0  0  0  0  0  0
   -1.0355   -1.6295    1.2329 H   0  0  0  0  0  0  0  0  0  0  0  0
    2.6792   -2.1468    1.6275 H   0  0  0  0  0  0  0  0  0  0  0  0
  1  2  1  0
  2  3  2  0
  3  4  1  0
  4  5  2  0
  5  6  1  0
  6  7  1  0
  7  8  1  0
  8  9  2  0
  8 10  1  0
  8 11  1  0
  5 12  1  0
 12 13  1  0
 13 14  2  0
 12 15  2  0
 15 16  1  0
 15  2  1  0
  1 17  1  0
  1 18  1  0
  1 19  1  0
  4 20  1  0
  6 21  1  0
  6 22  1  0
 10 23  1  0
 11 24  1  0
 13 25  1  0
 16 26  1  0
M  END
$$$$

     RDKit          3D

 26 26  0  0  0  0  0  0  0  0999 V2000
    4.1773    0.6963   -0.2241 C   0  0  0  0  0  0  0  0  0  0  0  0
    2.7093    0.6550    0.0272 C   0  0  0  0  0  0  0  0  0  0  0  0
    2.1026    1.7495    0.4026 N   0  0  0  0  0  0  0  0  0  0  0  0
    0.7618    1.7351    0.6944 C   0  0  0  0  0  0  0  0  0  0  0  0
    0.0869    0.5295    0.5845 C   0  0  0  0  0  0  0  0  0  0  0  0
   -1.3392    0.3950    0.9332 C   0  0  0  0  0  0  0  0  0  0  0  0
   -2.0038    0.1709   -0.3129 O   0  0  0  0  0  0  0  0  0  0  0  0
   -3.6327   -0.1469   -0.1774 P   0  0  0  0  0  5  0  0  0  0  0  0
   -3.9546   -1.3425   -1.0925 O   0  0  0  0  0  0  0  0  0  0  0  0
   -4.5951    1.1280   -0.6420 O   0  0  0  0  0  0  0  0  0  0  0  0
   -3.9648   -0.6267    1.4215 O   0  0  0  0  0  0  0  0  0  0  0  0
    0.7171   -0.6650    0.1896 C   0  0  0  0  0  0  0  0  0  0  0  0
   -0.0450   -1.8469   -0.0281 C   0  0  0  0  0  0  0  0  0  0  0  0
    0.7057   -2.8194   -0.6639 O   0  0  0  0  0  0  0  0  0  0  0  0
    2.0201   -0.5768   -0.0897 C   0  0  0  0  0  0  0  0  0  0  0  0
    2.7775   -1.5892   -0.5048 O   0  0  0  0  0  0  0  0  0  0  0  0
    4.6323   -0.3447   -0.2392 H   0  0  0  0  0  0  0  0  0  0  0  0
    4.3415    1.2518   -1.1660 H   0  0  0  0  0  0  0  0  0  0  0  0
    4.6394    1.2978    0.5915 H   0  0  0  0  0  0  0  0  0  0  0  0
    0.2816    2.6507    0.9777 H   0  0  0  0  0  0  0  0  0  0  0  0
   -1.6828    1.5653    1.0813 H   0  0  0  0  0  0  0  0  0  0  0  0
   -1.5823   -0.1012    1.7933 H   0  0  0  0  0  0  0  0  0  0  0  0
   -4.1548    1.9918   -0.3945 H   0  0  0  0  0  0  0  0  0  0  0  0
   -4.8802   -1.0137    1.4709 H   0  0  0  0  0  0  0  0  0  0  0  0
   -0.9735   -2.2480    0.1329 H   0  0  0  0  0  0  0  0  0  0  0  0
    2.8556   -2.4959   -0.7374 H   0  0  0  0  0  0  0  0  0  0  0  0
  1  2  1  0
  2  3  2  0
  3  4  1  0
  4  5  2  0
  5  6  1  0
  6  7  1  0
  7  8  1  0
  8  9  2  0
  8 10  1  0
  8 11  1  0
  5 12  1  0
 12 13  1  0
 13 14  2  0
 12 15  2  0
 15 16  1  0
 15  2  1  0
  1 17  1  0
  1 18  1  0
  1 19  1  0
  4 20  1  0
  6 21  1  0
  6 22  1  0
 10 23  1  0
 11 24  1  0
 13 25  1  0
 16 26  1  0
M  END
$$$$

     RDKit          3D

 26 26  0  0  0  0  0  0  0  0999 V2000
   -4.0540   -1.2081   -0.2486 C   0  0  0  0  0  0  0  0  0  0  0  0
   -2.6257   -0.8536   -0.1001 C   0  0  0  0  0  0  0  0  0  0  0  0
   -1.6607   -1.7751   -0.0346 N   0  0  0  0  0  0  0  0  0  0  0  0
   -0.3694   -1.4331    0.1001 C   0  0  0  0  0  0  0  0  0  0  0  0
   -0.0135   -0.1011    0.1742 C   0  0  0  0  0  0  0  0  0  0  0  0
    1.4074    0.2425    0.3098 C   0  0  0  0  0  0  0  0  0  0  0  0
    2.1463   -0.9585    0.3601 O   0  0  0  0  0  0  0  0  0  0  0  0
    3.7732   -0.5331    0.5162 P   0  0  0  0  0  5  0  0  0  0  0  0
    4.1123   -0.5956    2.0038 O   0  0  0  0  0  0  0  0  0  0  0  0
    4.7373   -1.6388   -0.3169 O   0  0  0  0  0  0  0  0  0  0  0  0
    4.0012    0.9934   -0.1230 O   0  0  0  0  0  0  0  0  0  0  0  0
   -0.9887    0.9080    0.1107 C   0  0  0  0  0  0  0  0  0  0  0  0
   -0.5723    2.2921    0.1984 C   0  0  0  0  0  0  0  0  0  0  0  0
    0.6051    2.6643    0.3254 O   0  0  0  0  0  0  0  0  0  0  0  0
   -2.2992    0.5113   -0.0277 C   0  0  0  0  0  0  0  0  0  0  0  0
   -3.2883    1.4628   -0.0946 O   0  0  0  0  0  0  0  0  0  0  0  0
   -4.2053   -2.1771   -0.7456 H   0  0  0  0  0  0  0  0  0  0  0  0
   -4.6269   -0.4014   -0.7479 H   0  0  0  0  0  0  0  0  0  0  0  0
   -4.4934   -1.2932    0.7787 H   0  0  0  0  0  0  0  0  0  0  0  0
    0.3968   -2.2251    0.1502 H   0  0  0  0  0  0  0  0  0  0  0  0
    1.6208    0.7701    1.2595 H   0  0  0  0  0  0  0  0  0  0  0  0
    1.7831    0.8835   -0.5179 H   0  0  0  0  0  0  0  0  0  0  0  0
    4.3651   -2.5349   -0.1835 H   0  0  0  0  0  0  0  0  0  0  0  0
    4.7685    1.4695    0.2963 H   0  0  0  0  0  0  0  0  0  0  0  0
   -1.3205    3.0828    0.1528 H   0  0  0  0  0  0  0  0  0  0  0  0
   -3.1994    2.4485   -0.0566 H   0  0  0  0  0  0  0  0  0  0  0  0
  1  2  1  0
  2  3  2  0
  3  4  1  0
  4  5  2  0
  5  6  1  0
  6  7  1  0
  7  8  1  0
  8  9  2  0
  8 10  1  0
  8 11  1  0
  5 12  1  0
 12 13  1  0
 13 14  2  0
 12 15  2  0
 15 16  1  0
 15  2  1  0
  1 17  1  0
  1 18  1  0
  1 19  1  0
  4 20  1  0
  6 21  1  0
  6 22  1  0
 10 23  1  0
 11 24  1  0
 13 25  1  0
 16 26  1  0
M  END
$$$$

     RDKit          3D

 26 26  0  0  0  0  0  0  0  0999 V2000
   -3.6425    0.7481    1.8965 C   0  0  0  0  0  0  0  0  0  0  0  0
   -2.3655    0.4854    1.1789 C   0  0  0  0  0  0  0  0  0  0  0  0
   -1.2229    0.9175    1.7379 N   0  0  0  0  0  0  0  0  0  0  0  0
   -0.0428    0.7084    1.1354 C   0  0  0  0  0  0  0  0  0  0  0  0
   -0.0340    0.0294   -0.0885 C   0  0  0  0  0  0  0  0  0  0  0  0
    1.2937   -0.1721   -0.6995 C   0  0  0  0  0  0  0  0  0  0  0  0
    2.3150    0.3727    0.0782 O   0  0  0  0  0  0  0  0  0  0  0  0
    3.8265    0.1586   -0.5902 P   0  0  0  0  0  5  0  0  0  0  0  0
    3.8083    0.0973   -2.0960 O   0  0  0  0  0  0  0  0  0  0  0  0
    4.9027    1.3501   -0.1002 O   0  0  0  0  0  0  0  0  0  0  0  0
    4.4326   -1.3338   -0.0275 O   0  0  0  0  0  0  0  0  0  0  0  0
   -1.2053   -0.4159   -0.6659 C   0  0  0  0  0  0  0  0  0  0  0  0
   -1.1647   -1.1183   -1.9412 C   0  0  0  0  0  0  0  0  0  0  0  0
   -0.0943   -1.3246   -2.5188 O   0  0  0  0  0  0  0  0  0  0  0  0
   -2.4145   -0.1802   -0.0099 C   0  0  0  0  0  0  0  0  0  0  0  0
   -3.6043   -0.6026   -0.5423 O   0  0  0  0  0  0  0  0  0  0  0  0
   -4.3801    1.2783    1.2789 H   0  0  0  0  0  0  0  0  0  0  0  0
   -3.4888    1.3314    2.8253 H   0  0  0  0  0  0  0  0  0  0  0  0
   -4.0175   -0.2615    2.2236 H   0  0  0  0  0  0  0  0  0  0  0  0
    0.8835    1.0500    1.5730 H   0  0  0  0  0  0  0  0  0  0  0  0
    1.4694   -1.2707   -0.8207 H   0  0  0  0  0  0  0  0  0  0  0  0
    1.3765    0.2741   -1.7103 H   0  0  0  0  0  0  0  0  0  0  0  0
    4.6441    1.7853    0.7405 H   0  0  0  0  0  0  0  0  0  0  0  0
    4.5357   -1.3354    0.9593 H   0  0  0  0  0  0  0  0  0  0  0  0
   -2.0673   -1.4843   -2.4285 H   0  0  0  0  0  0  0  0  0  0  0  0
   -3.7435   -1.0871   -1.3879 H   0  0  0  0  0  0  0  0  0  0  0  0
  1  2  1  0
  2  3  2  0
  3  4  1  0
  4  5  2  0
  5  6  1  0
  6  7  1  0
  7  8  1  0
  8  9  2  0
  8 10  1  0
  8 11  1  0
  5 12  1  0
 12 13  1  0
 13 14  2  0
 12 15  2  0
 15 16  1  0
 15  2  1  0
  1 17  1  0
  1 18  1  0
  1 19  1  0
  4 20  1  0
  6 21  1  0
  6 22  1  0
 10 23  1  0
 11 24  1  0
 13 25  1  0
 16 26  1  0
M  END
$$$$

     RDKit          3D

 26 26  0  0  0  0  0  0  0  0999 V2000
   -4.0932    0.8799   -1.2014 C   0  0  0  0  0  0  0  0  0  0  0  0
   -2.6634    0.6193   -0.8573 C   0  0  0  0  0  0  0  0  0  0  0  0
   -1.6632    1.3934   -1.2825 N   0  0  0  0  0  0  0  0  0  0  0  0
   -0.3805    1.1508   -0.9678 C   0  0  0  0  0  0  0  0  0  0  0  0
   -0.0314    0.0583   -0.1676 C   0  0  0  0  0  0  0  0  0  0  0  0
    1.3924   -0.1949    0.1602 C   0  0  0  0  0  0  0  0  0  0  0  0
    2.2163    0.7888   -0.4182 O   0  0  0  0  0  0  0  0  0  0  0  0
    3.8298    0.5347   -0.0689 P   0  0  0  0  0  5  0  0  0  0  0  0
    4.3444   -0.5658   -0.9966 O   0  0  0  0  0  0  0  0  0  0  0  0
    4.7121    1.9644   -0.2731 O   0  0  0  0  0  0  0  0  0  0  0  0
    4.0587    0.0475    1.5458 O   0  0  0  0  0  0  0  0  0  0  0  0
   -1.0394   -0.7624    0.2896 C   0  0  0  0  0  0  0  0  0  0  0  0
   -0.7281   -1.9024    1.1243 C   0  0  0  0  0  0  0  0  0  0  0  0
    0.4518   -2.1535    1.4355 O   0  0  0  0  0  0  0  0  0  0  0  0
   -2.3545   -0.4685   -0.0647 C   0  0  0  0  0  0  0  0  0  0  0  0
   -3.3658   -1.2652    0.3750 O   0  0  0  0  0  0  0  0  0  0  0  0
   -4.1804    1.7965   -1.7897 H   0  0  0  0  0  0  0  0  0  0  0  0
   -4.5108   -0.0216   -1.6970 H   0  0  0  0  0  0  0  0  0  0  0  0
   -4.6999    1.0349   -0.2634 H   0  0  0  0  0  0  0  0  0  0  0  0
    0.4016    1.8027   -1.3327 H   0  0  0  0  0  0  0  0  0  0  0  0
    1.7676   -1.1755   -0.1555 H   0  0  0  0  0  0  0  0  0  0  0  0
    1.5129   -0.1002    1.2494 H   0  0  0  0  0  0  0  0  0  0  0  0
    5.1811    1.8984   -1.1433 H   0  0  0  0  0  0  0  0  0  0  0  0
    4.6556   -0.7342    1.6019 H   0  0  0  0  0  0  0  0  0  0  0  0
   -1.4944   -2.5463    1.4879 H   0  0  0  0  0  0  0  0  0  0  0  0
   -3.3194   -2.0793    0.9471 H   0  0  0  0  0  0  0  0  0  0  0  0
  1  2  1  0
  2  3  2  0
  3  4  1  0
  4  5  2  0
  5  6  1  0
  6  7  1  0
  7  8  1  0
  8  9  2  0
  8 10  1  0
  8 11  1  0
  5 12  1  0
 12 13  1  0
 13 14  2  0
 12 15  2  0
 15 16  1  0
 15  2  1  0
  1 17  1  0
  1 18  1  0
  1 19  1  0
  4 20  1  0
  6 21  1  0
  6 22  1  0
 10 23  1  0
 11 24  1  0
 13 25  1  0
 16 26  1  0
M  END
$$$$

     RDKit          3D

 26 26  0  0  0  0  0  0  0  0999 V2000
   -3.7972    1.2839    1.3978 C   0  0  0  0  0  0  0  0  0  0  0  0
   -2.4523    0.8990    0.8771 C   0  0  0  0  0  0  0  0  0  0  0  0
   -1.3415    1.5414    1.2782 N   0  0  0  0  0  0  0  0  0  0  0  0
   -0.1060    1.2318    0.8386 C   0  0  0  0  0  0  0  0  0  0  0  0
    0.0988    0.2089   -0.0746 C   0  0  0  0  0  0  0  0  0  0  0  0
    1.4476   -0.1586   -0.5800 C   0  0  0  0  0  0  0  0  0  0  0  0
    2.3591    0.6922    0.0291 O   0  0  0  0  0  0  0  0  0  0  0  0
    3.9371    0.4358   -0.4122 P   0  0  0  0  0  5  0  0  0  0  0  0
    4.4521    1.7147   -1.0772 O   0  0  0  0  0  0  0  0  0  0  0  0
    4.9492    0.1927    0.9422 O   0  0  0  0  0  0  0  0  0  0  0  0
    4.0779   -0.8305   -1.5068 O   0  0  0  0  0  0  0  0  0  0  0  0
   -1.0174   -0.4665   -0.5035 C   0  0  0  0  0  0  0  0  0  0  0  0
   -0.8295   -1.5435   -1.4611 C   0  0  0  0  0  0  0  0  0  0  0  0
   -1.8487   -2.1630   -1.8551 O   0  0  0  0  0  0  0  0  0  0  0  0
   -2.2803   -0.1230   -0.0308 C   0  0  0  0  0  0  0  0  0  0  0  0
   -3.3649   -0.8283   -0.4900 O   0  0  0  0  0  0  0  0  0  0  0  0
   -4.4116    0.3820    1.6269 H   0  0  0  0  0  0  0  0  0  0  0  0
   -4.3422    1.8938    0.6760 H   0  0  0  0  0  0  0  0  0  0  0  0
   -3.7000    1.8114    2.3868 H   0  0  0  0  0  0  0  0  0  0  0  0
    0.7863    1.7617    1.1728 H   0  0  0  0  0  0  0  0  0  0  0  0
    1.5123   -0.0755   -1.6819 H   0  0  0  0  0  0  0  0  0  0  0  0
    1.6945   -1.2233   -0.3439 H   0  0  0  0  0  0  0  0  0  0  0  0
    4.4141    0.1220    1.7746 H   0  0  0  0  0  0  0  0  0  0  0  0
    3.9242   -1.6785   -0.9795 H   0  0  0  0  0  0  0  0  0  0  0  0
    0.1223   -1.8347   -1.8453 H   0  0  0  0  0  0  0  0  0  0  0  0
   -4.2839   -0.5918   -0.1582 H   0  0  0  0  0  0  0  0  0  0  0  0
  1  2  1  0
  2  3  2  0
  3  4  1  0
  4  5  2  0
  5  6  1  0
  6  7  1  0
  7  8  1  0
  8  9  2  0
  8 10  1  0
  8 11  1  0
  5 12  1  0
 12 13  1  0
 13 14  2  0
 12 15  2  0
 15 16  1  0
 15  2  1  0
  1 17  1  0
  1 18  1  0
  1 19  1  0
  4 20  1  0
  6 21  1  0
  6 22  1  0
 10 23  1  0
 11 24  1  0
 13 25  1  0
 16 26  1  0
M  END
$$$$

     RDKit          3D

 26 26  0  0  0  0  0  0  0  0999 V2000
   -4.2655   -0.5448   -0.2189 C   0  0  0  0  0  0  0  0  0  0  0  0
   -2.7883   -0.4106   -0.1805 C   0  0  0  0  0  0  0  0  0  0  0  0
   -1.9913   -1.2658   -0.8308 N   0  0  0  0  0  0  0  0  0  0  0  0
   -0.6568   -1.1684   -0.8136 C   0  0  0  0  0  0  0  0  0  0  0  0
   -0.0068   -0.1669   -0.1150 C   0  0  0  0  0  0  0  0  0  0  0  0
    1.4656   -0.0488   -0.1006 C   0  0  0  0  0  0  0  0  0  0  0  0
    2.0193   -1.0894   -0.8600 O   0  0  0  0  0  0  0  0  0  0  0  0
    3.6876   -1.0273   -0.8940 P   0  0  0  0  0  5  0  0  0  0  0  0
    4.2300   -1.7300   -2.1272 O   0  0  0  0  0  0  0  0  0  0  0  0
    4.1851    0.5915   -0.9207 O   0  0  0  0  0  0  0  0  0  0  0  0
    4.3727   -1.7888    0.4581 O   0  0  0  0  0  0  0  0  0  0  0  0
   -0.7869    0.7422    0.5741 C   0  0  0  0  0  0  0  0  0  0  0  0
   -0.1625    1.8050    1.3254 C   0  0  0  0  0  0  0  0  0  0  0  0
    1.0819    1.9784    1.4042 O   0  0  0  0  0  0  0  0  0  0  0  0
   -2.1674    0.6124    0.5350 C   0  0  0  0  0  0  0  0  0  0  0  0
   -3.0254    1.4740    1.1924 O   0  0  0  0  0  0  0  0  0  0  0  0
   -4.6678   -1.1873    0.5677 H   0  0  0  0  0  0  0  0  0  0  0  0
   -4.7163    0.4738   -0.0490 H   0  0  0  0  0  0  0  0  0  0  0  0
   -4.6090   -0.8334   -1.2404 H   0  0  0  0  0  0  0  0  0  0  0  0
   -0.0408   -1.8770   -1.3507 H   0  0  0  0  0  0  0  0  0  0  0  0
    1.8626   -0.1535    0.9243 H   0  0  0  0  0  0  0  0  0  0  0  0
    1.8209    0.9386   -0.4893 H   0  0  0  0  0  0  0  0  0  0  0  0
    3.8572    1.0542   -0.1121 H   0  0  0  0  0  0  0  0  0  0  0  0
    4.7783   -1.1218    1.0386 H   0  0  0  0  0  0  0  0  0  0  0  0
   -0.7806    2.5058    1.8602 H   0  0  0  0  0  0  0  0  0  0  0  0
   -2.6957    2.2380    1.7318 H   0  0  0  0  0  0  0  0  0  0  0  0
  1  2  1  0
  2  3  2  0
  3  4  1  0
  4  5  2  0
  5  6  1  0
  6  7  1  0
  7  8  1  0
  8  9  2  0
  8 10  1  0
  8 11  1  0
  5 12  1  0
 12 13  1  0
 13 14  2  0
 12 15  2  0
 15 16  1  0
 15  2  1  0
  1 17  1  0
  1 18  1  0
  1 19  1  0
  4 20  1  0
  6 21  1  0
  6 22  1  0
 10 23  1  0
 11 24  1  0
 13 25  1  0
 16 26  1  0
M  END
$$$$

     RDKit          3D

 26 26  0  0  0  0  0  0  0  0999 V2000
   -4.0540   -0.9446   -0.0254 C   0  0  0  0  0  0  0  0  0  0  0  0
   -2.5994   -0.6566   -0.0647 C   0  0  0  0  0  0  0  0  0  0  0  0
   -1.7166   -1.6553    0.0852 N   0  0  0  0  0  0  0  0  0  0  0  0
   -0.4016   -1.3685    0.0457 C   0  0  0  0  0  0  0  0  0  0  0  0
    0.0467   -0.0809   -0.1439 C   0  0  0  0  0  0  0  0  0  0  0  0
    1.5065    0.1751   -0.1785 C   0  0  0  0  0  0  0  0  0  0  0  0
    2.1704   -1.0289    0.0013 O   0  0  0  0  0  0  0  0  0  0  0  0
    3.8180   -0.7570   -0.0352 P   0  0  0  0  0  5  0  0  0  0  0  0
    4.3046   -1.0528   -1.4458 O   0  0  0  0  0  0  0  0  0  0  0  0
    4.6107   -1.7342    1.1023 O   0  0  0  0  0  0  0  0  0  0  0  0
    4.1154    0.8743    0.2563 O   0  0  0  0  0  0  0  0  0  0  0  0
   -0.8776    0.9379   -0.2969 C   0  0  0  0  0  0  0  0  0  0  0  0
   -0.3888    2.2860   -0.4954 C   0  0  0  0  0  0  0  0  0  0  0  0
   -1.2214    3.2126   -0.6345 O   0  0  0  0  0  0  0  0  0  0  0  0
   -2.2194    0.6523   -0.2577 C   0  0  0  0  0  0  0  0  0  0  0  0
   -3.1085    1.6974   -0.4145 O   0  0  0  0  0  0  0  0  0  0  0  0
   -4.2421   -2.0285   -0.1126 H   0  0  0  0  0  0  0  0  0  0  0  0
   -4.5924   -0.3758   -0.8172 H   0  0  0  0  0  0  0  0  0  0  0  0
   -4.4916   -0.5835    0.9467 H   0  0  0  0  0  0  0  0  0  0  0  0
    0.3502   -2.1567    0.1642 H   0  0  0  0  0  0  0  0  0  0  0  0
    1.8171    0.9434    0.5578 H   0  0  0  0  0  0  0  0  0  0  0  0
    1.7218    0.6194   -1.1815 H   0  0  0  0  0  0  0  0  0  0  0  0
    5.0262   -2.5009    0.6706 H   0  0  0  0  0  0  0  0  0  0  0  0
    3.8815    1.3822   -0.5567 H   0  0  0  0  0  0  0  0  0  0  0  0
    0.6540    2.5277   -0.5288 H   0  0  0  0  0  0  0  0  0  0  0  0
   -4.1099    1.6158   -0.4047 H   0  0  0  0  0  0  0  0  0  0  0  0
  1  2  1  0
  2  3  2  0
  3  4  1  0
  4  5  2  0
  5  6  1  0
  6  7  1  0
  7  8  1  0
  8  9  2  0
  8 10  1  0
  8 11  1  0
  5 12  1  0
 12 13  1  0
 13 14  2  0
 12 15  2  0
 15 16  1  0
 15  2  1  0
  1 17  1  0
  1 18  1  0
  1 19  1  0
  4 20  1  0
  6 21  1  0
  6 22  1  0
 10 23  1  0
 11 24  1  0
 13 25  1  0
 16 26  1  0
M  END
$$$$

     RDKit          3D

 26 26  0  0  0  0  0  0  0  0999 V2000
   -4.1537   -1.0501   -0.0006 C   0  0  0  0  0  0  0  0  0  0  0  0
   -2.7058   -0.7270   -0.0121 C   0  0  0  0  0  0  0  0  0  0  0  0
   -1.7546   -1.6695    0.0100 N   0  0  0  0  0  0  0  0  0  0  0  0
   -0.4462   -1.3660   -0.0007 C   0  0  0  0  0  0  0  0  0  0  0  0
   -0.0124   -0.0766   -0.0348 C   0  0  0  0  0  0  0  0  0  0  0  0
    1.4522    0.1830   -0.0474 C   0  0  0  0  0  0  0  0  0  0  0  0
    2.1502   -1.0442   -0.0140 O   0  0  0  0  0  0  0  0  0  0  0  0
    3.8030   -0.7325   -0.0288 P   0  0  0  0  0  5  0  0  0  0  0  0
    4.3551   -0.8076   -1.4414 O   0  0  0  0  0  0  0  0  0  0  0  0
    4.6055   -1.8569    0.9579 O   0  0  0  0  0  0  0  0  0  0  0  0
    4.1283    0.8385    0.5301 O   0  0  0  0  0  0  0  0  0  0  0  0
   -0.9400    0.9493   -0.0590 C   0  0  0  0  0  0  0  0  0  0  0  0
   -0.4686    2.3190   -0.0938 C   0  0  0  0  0  0  0  0  0  0  0  0
    0.7517    2.5914   -0.1030 O   0  0  0  0  0  0  0  0  0  0  0  0
   -2.2735    0.6070   -0.0473 C   0  0  0  0  0  0  0  0  0  0  0  0
   -3.2634    1.5926   -0.0704 O   0  0  0  0  0  0  0  0  0  0  0  0
   -4.7502   -0.1987    0.3933 H   0  0  0  0  0  0  0  0  0  0  0  0
   -4.5292   -1.3392   -1.0050 H   0  0  0  0  0  0  0  0  0  0  0  0
   -4.3202   -1.8819    0.7417 H   0  0  0  0  0  0  0  0  0  0  0  0
    0.2444   -2.2185    0.0197 H   0  0  0  0  0  0  0  0  0  0  0  0
    1.7795    0.7017   -0.9548 H   0  0  0  0  0  0  0  0  0  0  0  0
    1.7043    0.7145    0.8826 H   0  0  0  0  0  0  0  0  0  0  0  0
    4.7789   -2.6939    0.4755 H   0  0  0  0  0  0  0  0  0  0  0  0
    4.0562    1.4869   -0.2296 H   0  0  0  0  0  0  0  0  0  0  0  0
   -1.1637    3.1272   -0.1124 H   0  0  0  0  0  0  0  0  0  0  0  0
   -3.0279    2.5517   -0.0956 H   0  0  0  0  0  0  0  0  0  0  0  0
  1  2  1  0
  2  3  2  0
  3  4  1  0
  4  5  2  0
  5  6  1  0
  6  7  1  0
  7  8  1  0
  8  9  2  0
  8 10  1  0
  8 11  1  0
  5 12  1  0
 12 13  1  0
 13 14  2  0
 12 15  2  0
 15 16  1  0
 15  2  1  0
  1 17  1  0
  1 18  1  0
  1 19  1  0
  4 20  1  0
  6 21  1  0
  6 22  1  0
 10 23  1  0
 11 24  1  0
 13 25  1  0
 16 26  1  0
M  END
$$$$

     RDKit          3D

 26 26  0  0  0  0  0  0  0  0999 V2000
   -4.1084    1.1645   -0.4110 C   0  0  0  0  0  0  0  0  0  0  0  0
   -2.6584    0.8141   -0.2763 C   0  0  0  0  0  0  0  0  0  0  0  0
   -1.7139    1.7246   -0.4982 N   0  0  0  0  0  0  0  0  0  0  0  0
   -0.3992    1.4749   -0.3945 C   0  0  0  0  0  0  0  0  0  0  0  0
    0.0276    0.2209   -0.0419 C   0  0  0  0  0  0  0  0  0  0  0  0
    1.4598   -0.1375    0.0945 C   0  0  0  0  0  0  0  0  0  0  0  0
    2.2976    0.9207   -0.1704 O   0  0  0  0  0  0  0  0  0  0  0  0
    3.8941    0.3894    0.0175 P   0  0  0  0  0  5  0  0  0  0  0  0
    4.5619    0.3570   -1.3387 O   0  0  0  0  0  0  0  0  0  0  0  0
    3.9581   -1.1443    0.7291 O   0  0  0  0  0  0  0  0  0  0  0  0
    4.6692    1.4623    1.0705 O   0  0  0  0  0  0  0  0  0  0  0  0
   -0.9187   -0.7750    0.2031 C   0  0  0  0  0  0  0  0  0  0  0  0
   -0.4590   -2.1037    0.5769 C   0  0  0  0  0  0  0  0  0  0  0  0
   -1.1561   -3.0985    0.8284 O   0  0  0  0  0  0  0  0  0  0  0  0
   -2.2606   -0.4718    0.0842 C   0  0  0  0  0  0  0  0  0  0  0  0
   -3.2765   -1.3617    0.2985 O   0  0  0  0  0  0  0  0  0  0  0  0
   -4.2950    1.5747   -1.4270 H   0  0  0  0  0  0  0  0  0  0  0  0
   -4.2817    2.0151    0.2973 H   0  0  0  0  0  0  0  0  0  0  0  0
   -4.7262    0.2846   -0.1714 H   0  0  0  0  0  0  0  0  0  0  0  0
    0.3307    2.2515   -0.5858 H   0  0  0  0  0  0  0  0  0  0  0  0
    1.6063   -0.4692    1.1630 H   0  0  0  0  0  0  0  0  0  0  0  0
    1.7371   -0.9599   -0.6180 H   0  0  0  0  0  0  0  0  0  0  0  0
    4.0142   -1.8724    0.0601 H   0  0  0  0  0  0  0  0  0  0  0  0
    4.2491    2.3347    0.9764 H   0  0  0  0  0  0  0  0  0  0  0  0
    0.6280   -2.2902    0.6571 H   0  0  0  0  0  0  0  0  0  0  0  0
   -3.1801   -2.3047    0.5575 H   0  0  0  0  0  0  0  0  0  0  0  0
  1  2  1  0
  2  3  2  0
  3  4  1  0
  4  5  2  0
  5  6  1  0
  6  7  1  0
  7  8  1  0
  8  9  2  0
  8 10  1  0
  8 11  1  0
  5 12  1  0
 12 13  1  0
 13 14  2  0
 12 15  2  0
 15 16  1  0
 15  2  1  0
  1 17  1  0
  1 18  1  0
  1 19  1  0
  4 20  1  0
  6 21  1  0
  6 22  1  0
 10 23  1  0
 11 24  1  0
 13 25  1  0
 16 26  1  0
M  END
$$$$

     RDKit          3D

 26 26  0  0  0  0  0  0  0  0999 V2000
   -4.0899   -0.8725    0.9454 C   0  0  0  0  0  0  0  0  0  0  0  0
   -2.6991   -0.7398    0.5617 C   0  0  0  0  0  0  0  0  0  0  0  0
   -1.7180   -1.6272    0.8571 N   0  0  0  0  0  0  0  0  0  0  0  0
   -0.4275   -1.4637    0.5150 C   0  0  0  0  0  0  0  0  0  0  0  0
    0.0509   -0.3608   -0.1908 C   0  0  0  0  0  0  0  0  0  0  0  0
    1.4307    0.0216   -0.2918 C   0  0  0  0  0  0  0  0  0  0  0  0
    2.2687   -0.5044   -1.2565 O   0  0  0  0  0  0  0  0  0  0  0  0
    3.7870    0.2412   -0.8941 P   0  0  0  0  0  5  0  0  0  0  0  0
    3.6247    1.6329   -0.3855 O   0  0  0  0  0  0  0  0  0  0  0  0
    4.5324   -0.6752    0.3325 O   0  0  0  0  0  0  0  0  0  0  0  0
    4.7377    0.1514   -2.2603 O   0  0  0  0  0  0  0  0  0  0  0  0
   -0.9814    0.5496   -0.5083 C   0  0  0  0  0  0  0  0  0  0  0  0
   -0.5688    1.7441   -1.2769 C   0  0  0  0  0  0  0  0  0  0  0  0
    0.6219    1.8735   -1.6625 O   0  0  0  0  0  0  0  0  0  0  0  0
   -2.2531    0.3821   -0.1637 C   0  0  0  0  0  0  0  0  0  0  0  0
   -3.2481    1.3178   -0.4908 O   0  0  0  0  0  0  0  0  0  0  0  0
   -4.6841   -1.1773    0.0056 H   0  0  0  0  0  0  0  0  0  0  0  0
   -4.5273    0.0578    1.3830 H   0  0  0  0  0  0  0  0  0  0  0  0
   -4.2587   -1.7183    1.6837 H   0  0  0  0  0  0  0  0  0  0  0  0
    0.3329   -2.1998    0.8197 H   0  0  0  0  0  0  0  0  0  0  0  0
    1.9123   -0.6273    0.6622 H   0  0  0  0  0  0  0  0  0  0  0  0
    1.7281    1.0230    0.0907 H   0  0  0  0  0  0  0  0  0  0  0  0
    4.5062   -1.6158   -0.0567 H   0  0  0  0  0  0  0  0  0  0  0  0
    5.3815    0.9027   -2.2654 H   0  0  0  0  0  0  0  0  0  0  0  0
   -1.2564    2.4999   -1.5043 H   0  0  0  0  0  0  0  0  0  0  0  0
   -4.2026    1.1846   -0.2425 H   0  0  0  0  0  0  0  0  0  0  0  0
  1  2  1  0
  2  3  2  0
  3  4  1  0
  4  5  2  0
  5  6  1  0
  6  7  1  0
  7  8  1  0
  8  9  2  0
  8 10  1  0
  8 11  1  0
  5 12  1  0
 12 13  1  0
 13 14  2  0
 12 15  2  0
 15 16  1  0
 15  2  1  0
  1 17  1  0
  1 18  1  0
  1 19  1  0
  4 20  1  0
  6 21  1  0
  6 22  1  0
 10 23  1  0
 11 24  1  0
 13 25  1  0
 16 26  1  0
M  END
$$$$

     RDKit          3D

 26 26  0  0  0  0  0  0  0  0999 V2000
   -3.4256    1.6835   -0.4505 C   0  0  0  0  0  0  0  0  0  0  0  0
   -2.1315    0.9137   -0.4092 C   0  0  0  0  0  0  0  0  0  0  0  0
   -1.0164    1.3907   -0.9742 N   0  0  0  0  0  0  0  0  0  0  0  0
    0.1482    0.6866   -0.9302 C   0  0  0  0  0  0  0  0  0  0  0  0
    0.2558   -0.5368   -0.3136 C   0  0  0  0  0  0  0  0  0  0  0  0
    1.4800   -1.3644   -0.2598 C   0  0  0  0  0  0  0  0  0  0  0  0
    2.6195   -0.8188   -0.7898 O   0  0  0  0  0  0  0  0  0  0  0  0
    3.2021    0.5421   -0.0250 P   0  0  0  0  0  5  0  0  0  0  0  0
    2.2097    1.0902    0.9771 O   0  0  0  0  0  0  0  0  0  0  0  0
    3.6323    1.7194   -1.1559 O   0  0  0  0  0  0  0  0  0  0  0  0
    4.6534    0.1800    0.8318 O   0  0  0  0  0  0  0  0  0  0  0  0
   -0.9032   -1.0558    0.2855 C   0  0  0  0  0  0  0  0  0  0  0  0
   -0.8516   -2.3487    0.9554 C   0  0  0  0  0  0  0  0  0  0  0  0
   -1.9241   -2.7705    1.4813 O   0  0  0  0  0  0  0  0  0  0  0  0
   -2.0504   -0.3096    0.2135 C   0  0  0  0  0  0  0  0  0  0  0  0
   -3.2065   -0.8079    0.8008 O   0  0  0  0  0  0  0  0  0  0  0  0
   -3.2924    2.6049   -1.0156 H   0  0  0  0  0  0  0  0  0  0  0  0
   -4.1990    1.0051   -0.8225 H   0  0  0  0  0  0  0  0  0  0  0  0
   -3.7034    1.9465    0.6109 H   0  0  0  0  0  0  0  0  0  0  0  0
    1.0300    1.1079   -1.4279 H   0  0  0  0  0  0  0  0  0  0  0  0
    1.6654   -1.7177    0.7967 H   0  0  0  0  0  0  0  0  0  0  0  0
    1.2729   -2.2837   -0.8934 H   0  0  0  0  0  0  0  0  0  0  0  0
    3.2740    2.6047   -0.9682 H   0  0  0  0  0  0  0  0  0  0  0  0
    5.2981   -0.2355    0.2067 H   0  0  0  0  0  0  0  0  0  0  0  0
    0.0268   -2.9457    1.0233 H   0  0  0  0  0  0  0  0  0  0  0  0
   -4.0641   -0.2801    0.7624 H   0  0  0  0  0  0  0  0  0  0  0  0
  1  2  1  0
  2  3  2  0
  3  4  1  0
  4  5  2  0
  5  6  1  0
  6  7  1  0
  7  8  1  0
  8  9  2  0
  8 10  1  0
  8 11  1  0
  5 12  1  0
 12 13  1  0
 13 14  2  0
 12 15  2  0
 15 16  1  0
 15  2  1  0
  1 17  1  0
  1 18  1  0
  1 19  1  0
  4 20  1  0
  6 21  1  0
  6 22  1  0
 10 23  1  0
 11 24  1  0
 13 25  1  0
 16 26  1  0
M  END
$$$$

     RDKit          3D

 26 26  0  0  0  0  0  0  0  0999 V2000
   -3.8489    1.4932    0.8257 C   0  0  0  0  0  0  0  0  0  0  0  0
   -2.5022    0.9212    0.5029 C   0  0  0  0  0  0  0  0  0  0  0  0
   -1.4200    1.6766    0.7602 N   0  0  0  0  0  0  0  0  0  0  0  0
   -0.1773    1.2389    0.5006 C   0  0  0  0  0  0  0  0  0  0  0  0
   -0.0367   -0.0194   -0.0430 C   0  0  0  0  0  0  0  0  0  0  0  0
    1.3364   -0.5077   -0.3368 C   0  0  0  0  0  0  0  0  0  0  0  0
    2.2742    0.4516    0.0216 O   0  0  0  0  0  0  0  0  0  0  0  0
    3.8471   -0.0305   -0.2816 P   0  0  0  0  0  5  0  0  0  0  0  0
    3.9456   -1.4233   -0.8345 O   0  0  0  0  0  0  0  0  0  0  0  0
    4.6951    0.0228    1.1902 O   0  0  0  0  0  0  0  0  0  0  0  0
    4.6407    1.0129   -1.3523 O   0  0  0  0  0  0  0  0  0  0  0  0
   -1.1443   -0.8189   -0.3175 C   0  0  0  0  0  0  0  0  0  0  0  0
   -0.9918   -2.1477   -0.8891 C   0  0  0  0  0  0  0  0  0  0  0  0
    0.1383   -2.6245   -1.1576 O   0  0  0  0  0  0  0  0  0  0  0  0
   -2.4153   -0.3443   -0.0406 C   0  0  0  0  0  0  0  0  0  0  0  0
   -3.5758   -1.0596   -0.2763 O   0  0  0  0  0  0  0  0  0  0  0  0
   -3.7935    2.6165    0.8482 H   0  0  0  0  0  0  0  0  0  0  0  0
   -4.1805    1.1670    1.8221 H   0  0  0  0  0  0  0  0  0  0  0  0
   -4.6040    1.2214    0.0586 H   0  0  0  0  0  0  0  0  0  0  0  0
    0.7169    1.8359    0.7017 H   0  0  0  0  0  0  0  0  0  0  0  0
    1.4079   -0.7067   -1.4406 H   0  0  0  0  0  0  0  0  0  0  0  0
    1.5563   -1.4184    0.2475 H   0  0  0  0  0  0  0  0  0  0  0  0
    5.6030    0.3911    1.0852 H   0  0  0  0  0  0  0  0  0  0  0  0
    4.0604    1.7669   -1.6284 H   0  0  0  0  0  0  0  0  0  0  0  0
   -1.8599   -2.7507   -1.0932 H   0  0  0  0  0  0  0  0  0  0  0  0
   -3.6716   -1.9642   -0.6554 H   0  0  0  0  0  0  0  0  0  0  0  0
  1  2  1  0
  2  3  2  0
  3  4  1  0
  4  5  2  0
  5  6  1  0
  6  7  1  0
  7  8  1  0
  8  9  2  0
  8 10  1  0
  8 11  1  0
  5 12  1  0
 12 13  1  0
 13 14  2  0
 12 15  2  0
 15 16  1  0
 15  2  1  0
  1 17  1  0
  1 18  1  0
  1 19  1  0
  4 20  1  0
  6 21  1  0
  6 22  1  0
 10 23  1  0
 11 24  1  0
 13 25  1  0
 16 26  1  0
M  END
$$$$

     RDKit          3D

 26 26  0  0  0  0  0  0  0  0999 V2000
   -3.7970    1.8621    0.5271 C   0  0  0  0  0  0  0  0  0  0  0  0
   -2.4537    1.2118    0.3643 C   0  0  0  0  0  0  0  0  0  0  0  0
   -1.3607    1.8344    0.7183 N   0  0  0  0  0  0  0  0  0  0  0  0
   -0.1263    1.3251    0.6059 C   0  0  0  0  0  0  0  0  0  0  0  0
   -0.0248    0.0571    0.0786 C   0  0  0  0  0  0  0  0  0  0  0  0
    1.3171   -0.5524   -0.0671 C   0  0  0  0  0  0  0  0  0  0  0  0
    2.2693    0.3295    0.3848 O   0  0  0  0  0  0  0  0  0  0  0  0
    3.8089   -0.3551    0.2237 P   0  0  0  0  0  5  0  0  0  0  0  0
    4.1041   -1.2522    1.4108 O   0  0  0  0  0  0  0  0  0  0  0  0
    3.8399   -1.1942   -1.2327 O   0  0  0  0  0  0  0  0  0  0  0  0
    4.9716    0.8815    0.2560 O   0  0  0  0  0  0  0  0  0  0  0  0
   -1.1509   -0.6795   -0.3263 C   0  0  0  0  0  0  0  0  0  0  0  0
   -0.9384   -2.0152   -0.8728 C   0  0  0  0  0  0  0  0  0  0  0  0
   -1.8228   -2.7804   -1.2696 O   0  0  0  0  0  0  0  0  0  0  0  0
   -2.3670   -0.0817   -0.1750 C   0  0  0  0  0  0  0  0  0  0  0  0
   -3.5181   -0.7139   -0.5378 O   0  0  0  0  0  0  0  0  0  0  0  0
   -4.5625    1.3171   -0.0315 H   0  0  0  0  0  0  0  0  0  0  0  0
   -3.6762    2.8910    0.0975 H   0  0  0  0  0  0  0  0  0  0  0  0
   -3.9877    1.9185    1.6153 H   0  0  0  0  0  0  0  0  0  0  0  0
    0.7474    1.8913    0.9178 H   0  0  0  0  0  0  0  0  0  0  0  0
    1.4827   -0.8640   -1.1315 H   0  0  0  0  0  0  0  0  0  0  0  0
    1.3436   -1.5254    0.5063 H   0  0  0  0  0  0  0  0  0  0  0  0
    4.7237   -1.1773   -1.6746 H   0  0  0  0  0  0  0  0  0  0  0  0
    4.6901    1.6414    0.8316 H   0  0  0  0  0  0  0  0  0  0  0  0
    0.1070   -2.3736   -0.9372 H   0  0  0  0  0  0  0  0  0  0  0  0
   -3.6196   -1.5960   -0.9189 H   0  0  0  0  0  0  0  0  0  0  0  0
  1  2  1  0
  2  3  2  0
  3  4  1  0
  4  5  2  0
  5  6  1  0
  6  7  1  0
  7  8  1  0
  8  9  2  0
  8 10  1  0
  8 11  1  0
  5 12  1  0
 12 13  1  0
 13 14  2  0
 12 15  2  0
 15 16  1  0
 15  2  1  0
  1 17  1  0
  1 18  1  0
  1 19  1  0
  4 20  1  0
  6 21  1  0
  6 22  1  0
 10 23  1  0
 11 24  1  0
 13 25  1  0
 16 26  1  0
M  END
$$$$

     RDKit          3D

 26 26  0  0  0  0  0  0  0  0999 V2000
    4.0184   -1.1788    0.8294 C   0  0  0  0  0  0  0  0  0  0  0  0
    2.6042   -0.7984    0.5610 C   0  0  0  0  0  0  0  0  0  0  0  0
    1.5994   -1.3132    1.2813 N   0  0  0  0  0  0  0  0  0  0  0  0
    0.3291   -0.9703    1.0385 C   0  0  0  0  0  0  0  0  0  0  0  0
    0.0619   -0.0734    0.0302 C   0  0  0  0  0  0  0  0  0  0  0  0
   -1.3599    0.2780   -0.2264 C   0  0  0  0  0  0  0  0  0  0  0  0
   -2.1494   -0.4106    0.6958 O   0  0  0  0  0  0  0  0  0  0  0  0
   -3.7755   -0.0582    0.4615 P   0  0  0  0  0  5  0  0  0  0  0  0
   -3.8696    1.1293   -0.4653 O   0  0  0  0  0  0  0  0  0  0  0  0
   -4.4894   -1.4262   -0.2673 O   0  0  0  0  0  0  0  0  0  0  0  0
   -4.5304    0.2625    1.9469 O   0  0  0  0  0  0  0  0  0  0  0  0
    1.0643    0.4969   -0.7533 C   0  0  0  0  0  0  0  0  0  0  0  0
    0.7563    1.4500   -1.8109 C   0  0  0  0  0  0  0  0  0  0  0  0
   -0.4316    1.7767   -2.0408 O   0  0  0  0  0  0  0  0  0  0  0  0
    2.3594    0.1141   -0.4676 C   0  0  0  0  0  0  0  0  0  0  0  0
    3.4409    0.6162   -1.1825 O   0  0  0  0  0  0  0  0  0  0  0  0
    4.0470   -1.6208    1.8489 H   0  0  0  0  0  0  0  0  0  0  0  0
    4.6383   -0.2476    0.8347 H   0  0  0  0  0  0  0  0  0  0  0  0
    4.3243   -1.8911    0.0539 H   0  0  0  0  0  0  0  0  0  0  0  0
   -0.4800   -1.4078    1.6451 H   0  0  0  0  0  0  0  0  0  0  0  0
   -1.4758    1.3526   -0.0087 H   0  0  0  0  0  0  0  0  0  0  0  0
   -1.6660    0.0291   -1.2669 H   0  0  0  0  0  0  0  0  0  0  0  0
   -5.4200   -1.2502   -0.4920 H   0  0  0  0  0  0  0  0  0  0  0  0
   -4.4177    1.2233    2.1143 H   0  0  0  0  0  0  0  0  0  0  0  0
    1.5004    1.9087   -2.4289 H   0  0  0  0  0  0  0  0  0  0  0  0
    3.3215    1.2740   -1.9309 H   0  0  0  0  0  0  0  0  0  0  0  0
  1  2  1  0
  2  3  2  0
  3  4  1  0
  4  5  2  0
  5  6  1  0
  6  7  1  0
  7  8  1  0
  8  9  2  0
  8 10  1  0
  8 11  1  0
  5 12  1  0
 12 13  1  0
 13 14  2  0
 12 15  2  0
 15 16  1  0
 15  2  1  0
  1 17  1  0
  1 18  1  0
  1 19  1  0
  4 20  1  0
  6 21  1  0
  6 22  1  0
 10 23  1  0
 11 24  1  0
 13 25  1  0
 16 26  1  0
M  END
$$$$

     RDKit          3D

 26 26  0  0  0  0  0  0  0  0999 V2000
   -4.0109   -1.2737   -0.1592 C   0  0  0  0  0  0  0  0  0  0  0  0
   -2.5646   -0.8498   -0.1167 C   0  0  0  0  0  0  0  0  0  0  0  0
   -1.5724   -1.7506   -0.0002 N   0  0  0  0  0  0  0  0  0  0  0  0
   -0.2757   -1.3933    0.0396 C   0  0  0  0  0  0  0  0  0  0  0  0
    0.1012   -0.0694   -0.0381 C   0  0  0  0  0  0  0  0  0  0  0  0
    1.5477    0.3495    0.0048 C   0  0  0  0  0  0  0  0  0  0  0  0
    2.3414   -0.7820    0.1280 O   0  0  0  0  0  0  0  0  0  0  0  0
    3.9568   -0.2788    0.1734 P   0  0  0  0  0  5  0  0  0  0  0  0
    4.2109    0.7149   -0.9406 O   0  0  0  0  0  0  0  0  0  0  0  0
    4.2386    0.4310    1.6619 O   0  0  0  0  0  0  0  0  0  0  0  0
    4.9651   -1.6044   -0.0841 O   0  0  0  0  0  0  0  0  0  0  0  0
   -0.9018    0.8682   -0.1578 C   0  0  0  0  0  0  0  0  0  0  0  0
   -0.5208    2.2644   -0.2406 C   0  0  0  0  0  0  0  0  0  0  0  0
   -1.4102    3.1307   -0.3493 O   0  0  0  0  0  0  0  0  0  0  0  0
   -2.2489    0.4888   -0.1986 C   0  0  0  0  0  0  0  0  0  0  0  0
   -3.2042    1.4884   -0.3204 O   0  0  0  0  0  0  0  0  0  0  0  0
   -4.3631   -1.2162    0.9073 H   0  0  0  0  0  0  0  0  0  0  0  0
   -4.0319   -2.3380   -0.4685 H   0  0  0  0  0  0  0  0  0  0  0  0
   -4.5889   -0.6134   -0.8046 H   0  0  0  0  0  0  0  0  0  0  0  0
    0.5275   -2.1193    0.1337 H   0  0  0  0  0  0  0  0  0  0  0  0
    1.7204    1.0100    0.8785 H   0  0  0  0  0  0  0  0  0  0  0  0
    1.8038    0.9460   -0.9026 H   0  0  0  0  0  0  0  0  0  0  0  0
    3.5146    1.0727    1.8472 H   0  0  0  0  0  0  0  0  0  0  0  0
    4.4330   -2.3462   -0.4264 H   0  0  0  0  0  0  0  0  0  0  0  0
    0.5144    2.5350   -0.2078 H   0  0  0  0  0  0  0  0  0  0  0  0
   -4.1822    1.3354   -0.3590 H   0  0  0  0  0  0  0  0  0  0  0  0
  1  2  1  0
  2  3  2  0
  3  4  1  0
  4  5  2  0
  5  6  1  0
  6  7  1  0
  7  8  1  0
  8  9  2  0
  8 10  1  0
  8 11  1  0
  5 12  1  0
 12 13  1  0
 13 14  2  0
 12 15  2  0
 15 16  1  0
 15  2  1  0
  1 17  1  0
  1 18  1  0
  1 19  1  0
  4 20  1  0
  6 21  1  0
  6 22  1  0
 10 23  1  0
 11 24  1  0
 13 25  1  0
 16 26  1  0
M  END
$$$$

     RDKit          3D

 26 26  0  0  0  0  0  0  0  0999 V2000
    4.3021    0.2120    0.4653 C   0  0  0  0  0  0  0  0  0  0  0  0
    2.7991    0.0460    0.4655 C   0  0  0  0  0  0  0  0  0  0  0  0
    2.0910   -0.1648    1.5790 N   0  0  0  0  0  0  0  0  0  0  0  0
    0.7663   -0.3135    1.5535 C   0  0  0  0  0  0  0  0  0  0  0  0
    0.1108   -0.2535    0.3399 C   0  0  0  0  0  0  0  0  0  0  0  0
   -1.3232   -0.5582    0.2657 C   0  0  0  0  0  0  0  0  0  0  0  0
   -2.0962    0.5132   -0.2807 O   0  0  0  0  0  0  0  0  0  0  0  0
   -3.7040    0.0260   -0.1965 P   0  0  0  0  0  5  0  0  0  0  0  0
   -3.7890   -1.1378    0.8147 O   0  0  0  0  0  0  0  0  0  0  0  0
   -4.6345    1.2991    0.5148 O   0  0  0  0  0  0  0  0  0  0  0  0
   -4.3247   -0.4271   -1.6895 O   0  0  0  0  0  0  0  0  0  0  0  0
    0.7867   -0.0274   -0.8754 C   0  0  0  0  0  0  0  0  0  0  0  0
    0.0507    0.0748   -2.0996 C   0  0  0  0  0  0  0  0  0  0  0  0
    0.7039    0.2844   -3.2427 O   0  0  0  0  0  0  0  0  0  0  0  0
    2.1600    0.1229   -0.8099 C   0  0  0  0  0  0  0  0  0  0  0  0
    2.9345    0.3217   -1.8618 O   0  0  0  0  0  0  0  0  0  0  0  0
    4.6510   -0.2244    1.4076 H   0  0  0  0  0  0  0  0  0  0  0  0
    4.6724   -0.4075   -0.3852 H   0  0  0  0  0  0  0  0  0  0  0  0
    4.5995    1.2504    0.2516 H   0  0  0  0  0  0  0  0  0  0  0  0
    0.1516   -0.4863    2.4278 H   0  0  0  0  0  0  0  0  0  0  0  0
   -1.5766   -1.5271   -0.1529 H   0  0  0  0  0  0  0  0  0  0  0  0
   -1.6967   -0.6250    1.3925 H   0  0  0  0  0  0  0  0  0  0  0  0
   -4.1221    2.1146    0.6532 H   0  0  0  0  0  0  0  0  0  0  0  0
   -5.3179   -0.5438   -1.6842 H   0  0  0  0  0  0  0  0  0  0  0  0
   -0.9672    0.0111   -2.2586 H   0  0  0  0  0  0  0  0  0  0  0  0
    2.7725    0.4202   -2.8142 H   0  0  0  0  0  0  0  0  0  0  0  0
  1  2  1  0
  2  3  2  0
  3  4  1  0
  4  5  2  0
  5  6  1  0
  6  7  1  0
  7  8  1  0
  8  9  2  0
  8 10  1  0
  8 11  1  0
  5 12  1  0
 12 13  1  0
 13 14  2  0
 12 15  2  0
 15 16  1  0
 15  2  1  0
  1 17  1  0
  1 18  1  0
  1 19  1  0
  4 20  1  0
  6 21  1  0
  6 22  1  0
 10 23  1  0
 11 24  1  0
 13 25  1  0
 16 26  1  0
M  END
$$$$

     RDKit          3D

 26 26  0  0  0  0  0  0  0  0999 V2000
   -4.0886   -0.9237   -0.9635 C   0  0  0  0  0  0  0  0  0  0  0  0
   -2.6073   -0.7156   -0.7708 C   0  0  0  0  0  0  0  0  0  0  0  0
   -1.7216   -1.3493   -1.5309 N   0  0  0  0  0  0  0  0  0  0  0  0
   -0.4268   -1.1112   -1.2974 C   0  0  0  0  0  0  0  0  0  0  0  0
    0.0191   -0.2559   -0.3241 C   0  0  0  0  0  0  0  0  0  0  0  0
    1.4489    0.0081   -0.0639 C   0  0  0  0  0  0  0  0  0  0  0  0
    2.2935   -0.6877   -0.8955 O   0  0  0  0  0  0  0  0  0  0  0  0
    3.8770   -0.2597   -0.4505 P   0  0  0  0  0  5  0  0  0  0  0  0
    4.8926   -0.8328   -1.4088 O   0  0  0  0  0  0  0  0  0  0  0  0
    4.1152   -0.8422    1.1247 O   0  0  0  0  0  0  0  0  0  0  0  0
    4.0284    1.4391   -0.4348 O   0  0  0  0  0  0  0  0  0  0  0  0
   -0.9169    0.4128    0.4781 C   0  0  0  0  0  0  0  0  0  0  0  0
   -0.4223    1.3121    1.5000 C   0  0  0  0  0  0  0  0  0  0  0  0
   -1.0991    1.9801    2.2927 O   0  0  0  0  0  0  0  0  0  0  0  0
   -2.2514    0.1789    0.2507 C   0  0  0  0  0  0  0  0  0  0  0  0
   -3.2387    0.7894    0.9874 O   0  0  0  0  0  0  0  0  0  0  0  0
   -4.4941   -1.5022   -0.1089 H   0  0  0  0  0  0  0  0  0  0  0  0
   -4.3093   -1.4392   -1.9001 H   0  0  0  0  0  0  0  0  0  0  0  0
   -4.6040    0.0631   -0.9362 H   0  0  0  0  0  0  0  0  0  0  0  0
    0.3516   -1.6054   -1.8930 H   0  0  0  0  0  0  0  0  0  0  0  0
    1.6728   -0.2154    1.0078 H   0  0  0  0  0  0  0  0  0  0  0  0
    1.6513    1.0911   -0.2194 H   0  0  0  0  0  0  0  0  0  0  0  0
    4.7057   -0.2175    1.6128 H   0  0  0  0  0  0  0  0  0  0  0  0
    3.5207    1.8158    0.3345 H   0  0  0  0  0  0  0  0  0  0  0  0
    0.6681    1.4474    1.6211 H   0  0  0  0  0  0  0  0  0  0  0  0
   -3.0647    1.4197    1.7095 H   0  0  0  0  0  0  0  0  0  0  0  0
  1  2  1  0
  2  3  2  0
  3  4  1  0
  4  5  2  0
  5  6  1  0
  6  7  1  0
  7  8  1  0
  8  9  2  0
  8 10  1  0
  8 11  1  0
  5 12  1  0
 12 13  1  0
 13 14  2  0
 12 15  2  0
 15 16  1  0
 15  2  1  0
  1 17  1  0
  1 18  1  0
  1 19  1  0
  4 20  1  0
  6 21  1  0
  6 22  1  0
 10 23  1  0
 11 24  1  0
 13 25  1  0
 16 26  1  0
M  END
$$$$

     RDKit          3D

 26 26  0  0  0  0  0  0  0  0999 V2000
   -3.8173   -1.7143    0.5507 C   0  0  0  0  0  0  0  0  0  0  0  0
   -2.4653   -1.1574    0.2654 C   0  0  0  0  0  0  0  0  0  0  0  0
   -1.3501   -1.8325    0.5629 N   0  0  0  0  0  0  0  0  0  0  0  0
   -0.1270   -1.3308    0.3059 C   0  0  0  0  0  0  0  0  0  0  0  0
   -0.0271   -0.0885   -0.2792 C   0  0  0  0  0  0  0  0  0  0  0  0
    1.3067    0.4434   -0.5524 C   0  0  0  0  0  0  0  0  0  0  0  0
    2.3323   -0.4076   -0.1707 O   0  0  0  0  0  0  0  0  0  0  0  0
    3.7831    0.3684   -0.5605 P   0  0  0  0  0  5  0  0  0  0  0  0
    3.5412    1.2216   -1.7775 O   0  0  0  0  0  0  0  0  0  0  0  0
    4.3412    1.3448    0.6910 O   0  0  0  0  0  0  0  0  0  0  0  0
    4.8972   -0.8248   -0.9846 O   0  0  0  0  0  0  0  0  0  0  0  0
   -1.1563    0.6694   -0.6153 C   0  0  0  0  0  0  0  0  0  0  0  0
   -0.9101    1.9466   -1.2195 C   0  0  0  0  0  0  0  0  0  0  0  0
   -1.8134    2.7246   -1.5690 O   0  0  0  0  0  0  0  0  0  0  0  0
   -2.3806    0.1125   -0.3324 C   0  0  0  0  0  0  0  0  0  0  0  0
   -3.5403    0.7886   -0.6295 O   0  0  0  0  0  0  0  0  0  0  0  0
   -3.7568   -2.8219    0.5426 H   0  0  0  0  0  0  0  0  0  0  0  0
   -4.5548   -1.3041   -0.1510 H   0  0  0  0  0  0  0  0  0  0  0  0
   -4.0991   -1.3791    1.5630 H   0  0  0  0  0  0  0  0  0  0  0  0
    0.7738   -1.8833    0.5495 H   0  0  0  0  0  0  0  0  0  0  0  0
    1.4163    0.5750   -1.6670 H   0  0  0  0  0  0  0  0  0  0  0  0
    1.5048    1.4362   -0.1028 H   0  0  0  0  0  0  0  0  0  0  0  0
    4.9483    0.8814    1.3138 H   0  0  0  0  0  0  0  0  0  0  0  0
    4.6071   -1.7102   -0.6847 H   0  0  0  0  0  0  0  0  0  0  0  0
    0.1135    2.2742   -1.3912 H   0  0  0  0  0  0  0  0  0  0  0  0
   -3.5674    1.6679   -1.0419 H   0  0  0  0  0  0  0  0  0  0  0  0
  1  2  1  0
  2  3  2  0
  3  4  1  0
  4  5  2  0
  5  6  1  0
  6  7  1  0
  7  8  1  0
  8  9  2  0
  8 10  1  0
  8 11  1  0
  5 12  1  0
 12 13  1  0
 13 14  2  0
 12 15  2  0
 15 16  1  0
 15  2  1  0
  1 17  1  0
  1 18  1  0
  1 19  1  0
  4 20  1  0
  6 21  1  0
  6 22  1  0
 10 23  1  0
 11 24  1  0
 13 25  1  0
 16 26  1  0
M  END
$$$$

     RDKit          3D

 26 26  0  0  0  0  0  0  0  0999 V2000
   -4.1758    0.9587   -0.2184 C   0  0  0  0  0  0  0  0  0  0  0  0
   -2.7264    0.8242    0.0114 C   0  0  0  0  0  0  0  0  0  0  0  0
   -1.9679    1.7839    0.5735 N   0  0  0  0  0  0  0  0  0  0  0  0
   -0.5942    1.6105    0.7114 C   0  0  0  0  0  0  0  0  0  0  0  0
   -0.0241    0.4240    0.2083 C   0  0  0  0  0  0  0  0  0  0  0  0
    1.4264    0.1937   -0.0112 C   0  0  0  0  0  0  0  0  0  0  0  0
    2.3121    0.2844    0.9919 O   0  0  0  0  0  0  0  0  0  0  0  0
    3.8212   -0.2578    0.3799 P   0  0  0  0  0  5  0  0  0  0  0  0
    3.6979   -0.6491   -1.1035 O   0  0  0  0  0  0  0  0  0  0  0  0
    4.8628    1.0346    0.5991 O   0  0  0  0  0  0  0  0  0  0  0  0
    4.2352   -1.6656    1.1961 O   0  0  0  0  0  0  0  0  0  0  0  0
   -0.8021   -0.5646   -0.3660 C   0  0  0  0  0  0  0  0  0  0  0  0
   -0.1197   -1.7422   -0.8590 C   0  0  0  0  0  0  0  0  0  0  0  0
   -0.6947   -2.7357   -1.4730 O   0  0  0  0  0  0  0  0  0  0  0  0
   -2.1275   -0.3651   -0.4609 C   0  0  0  0  0  0  0  0  0  0  0  0
   -3.0442   -1.2693   -1.0206 O   0  0  0  0  0  0  0  0  0  0  0  0
   -4.3578    2.0024   -0.5130 H   0  0  0  0  0  0  0  0  0  0  0  0
   -4.7844    0.6442    0.6036 H   0  0  0  0  0  0  0  0  0  0  0  0
   -4.4380    0.4038   -1.1261 H   0  0  0  0  0  0  0  0  0  0  0  0
    0.0149    2.4611    1.1057 H   0  0  0  0  0  0  0  0  0  0  0  0
    1.6726    1.4751   -0.4534 H   0  0  0  0  0  0  0  0  0  0  0  0
    1.6381   -0.1535   -1.0039 H   0  0  0  0  0  0  0  0  0  0  0  0
    4.3461    1.8192    0.2028 H   0  0  0  0  0  0  0  0  0  0  0  0
    3.6365   -2.4116    0.8451 H   0  0  0  0  0  0  0  0  0  0  0  0
    0.9841   -1.8877   -0.7637 H   0  0  0  0  0  0  0  0  0  0  0  0
   -2.7911   -2.2173   -1.1198 H   0  0  0  0  0  0  0  0  0  0  0  0
  1  2  1  0
  2  3  2  0
  3  4  1  0
  4  5  2  0
  5  6  1  0
  6  7  1  0
  7  8  1  0
  8  9  2  0
  8 10  1  0
  8 11  1  0
  5 12  1  0
 12 13  1  0
 13 14  2  0
 12 15  2  0
 15 16  1  0
 15  2  1  0
  1 17  1  0
  1 18  1  0
  1 19  1  0
  4 20  1  0
  6 21  1  0
  6 22  1  0
 10 23  1  0
 11 24  1  0
 13 25  1  0
 16 26  1  0
M  END
$$$$

     RDKit          3D

 26 26  0  0  0  0  0  0  0  0999 V2000
   -4.2974   -0.5506    0.0557 C   0  0  0  0  0  0  0  0  0  0  0  0
   -2.8515   -0.4443   -0.2725 C   0  0  0  0  0  0  0  0  0  0  0  0
   -2.1929   -1.4435   -0.8478 N   0  0  0  0  0  0  0  0  0  0  0  0
   -0.8382   -1.3389   -0.9791 C   0  0  0  0  0  0  0  0  0  0  0  0
   -0.1111   -0.2704   -0.5488 C   0  0  0  0  0  0  0  0  0  0  0  0
    1.3333   -0.1908   -0.6555 C   0  0  0  0  0  0  0  0  0  0  0  0
    2.0176   -1.0581    0.2435 O   0  0  0  0  0  0  0  0  0  0  0  0
    3.6593   -0.7468    0.0406 P   0  0  0  0  0  5  0  0  0  0  0  0
    4.0482   -1.0152   -1.4046 O   0  0  0  0  0  0  0  0  0  0  0  0
    3.9598    0.9039    0.3156 O   0  0  0  0  0  0  0  0  0  0  0  0
    4.6141   -1.6547    1.0546 O   0  0  0  0  0  0  0  0  0  0  0  0
   -0.7796    0.8067    0.0458 C   0  0  0  0  0  0  0  0  0  0  0  0
   -0.1198    1.8984    0.6593 C   0  0  0  0  0  0  0  0  0  0  0  0
    1.1578    2.0398    0.4922 O   0  0  0  0  0  0  0  0  0  0  0  0
   -2.1719    0.6452    0.1563 C   0  0  0  0  0  0  0  0  0  0  0  0
   -2.9150    1.6940    0.7473 O   0  0  0  0  0  0  0  0  0  0  0  0
   -4.6289   -1.6043   -0.0655 H   0  0  0  0  0  0  0  0  0  0  0  0
   -4.9531    0.1020   -0.5047 H   0  0  0  0  0  0  0  0  0  0  0  0
   -4.4451   -0.3099    1.1456 H   0  0  0  0  0  0  0  0  0  0  0  0
   -0.4086   -2.1956   -1.4954 H   0  0  0  0  0  0  0  0  0  0  0  0
    1.8366    0.6693   -0.9600 H   0  0  0  0  0  0  0  0  0  0  0  0
    1.5603   -0.9085   -1.6492 H   0  0  0  0  0  0  0  0  0  0  0  0
    4.0588    1.4149   -0.5109 H   0  0  0  0  0  0  0  0  0  0  0  0
    5.5406   -1.5999    0.7196 H   0  0  0  0  0  0  0  0  0  0  0  0
   -0.5618    2.6346    1.2791 H   0  0  0  0  0  0  0  0  0  0  0  0
   -2.5114    2.5227    1.0244 H   0  0  0  0  0  0  0  0  0  0  0  0
  1  2  1  0
  2  3  2  0
  3  4  1  0
  4  5  2  0
  5  6  1  0
  6  7  1  0
  7  8  1  0
  8  9  2  0
  8 10  1  0
  8 11  1  0
  5 12  1  0
 12 13  1  0
 13 14  2  0
 12 15  2  0
 15 16  1  0
 15  2  1  0
  1 17  1  0
  1 18  1  0
  1 19  1  0
  4 20  1  0
  6 21  1  0
  6 22  1  0
 10 23  1  0
 11 24  1  0
 13 25  1  0
 16 26  1  0
M  END
$$$$

     RDKit          3D

 26 26  0  0  0  0  0  0  0  0999 V2000
    4.2187    0.6161    0.6360 C   0  0  0  0  0  0  0  0  0  0  0  0
    2.7576    0.5217    0.4009 C   0  0  0  0  0  0  0  0  0  0  0  0
    1.9207    1.5451    0.5203 N   0  0  0  0  0  0  0  0  0  0  0  0
    0.5995    1.4465    0.3047 C   0  0  0  0  0  0  0  0  0  0  0  0
    0.0331    0.2375   -0.0628 C   0  0  0  0  0  0  0  0  0  0  0  0
   -1.4227    0.1079   -0.2955 C   0  0  0  0  0  0  0  0  0  0  0  0
   -2.0708    1.3417   -0.1104 O   0  0  0  0  0  0  0  0  0  0  0  0
   -3.7161    1.0636   -0.4028 P   0  0  0  0  0  5  0  0  0  0  0  0
   -4.4271    2.3339   -0.8072 O   0  0  0  0  0  0  0  0  0  0  0  0
   -4.4666    0.4289    0.9764 O   0  0  0  0  0  0  0  0  0  0  0  0
   -3.9128   -0.0514   -1.6648 O   0  0  0  0  0  0  0  0  0  0  0  0
    0.8470   -0.8568   -0.2026 C   0  0  0  0  0  0  0  0  0  0  0  0
    0.3331   -2.1573   -0.5898 C   0  0  0  0  0  0  0  0  0  0  0  0
   -0.8934   -2.2908   -0.8021 O   0  0  0  0  0  0  0  0  0  0  0  0
    2.2087   -0.7145    0.0294 C   0  0  0  0  0  0  0  0  0  0  0  0
    3.0739   -1.7659   -0.0925 O   0  0  0  0  0  0  0  0  0  0  0  0
    4.5546    1.5428    0.0879 H   0  0  0  0  0  0  0  0  0  0  0  0
    4.7633   -0.2140    0.1861 H   0  0  0  0  0  0  0  0  0  0  0  0
    4.4168    0.7690    1.7155 H   0  0  0  0  0  0  0  0  0  0  0  0
   -0.0661    2.2830    0.4051 H   0  0  0  0  0  0  0  0  0  0  0  0
   -1.8101   -0.6399    0.4241 H   0  0  0  0  0  0  0  0  0  0  0  0
   -1.6961   -0.2181   -1.3121 H   0  0  0  0  0  0  0  0  0  0  0  0
   -5.3257    0.0240    0.6502 H   0  0  0  0  0  0  0  0  0  0  0  0
   -3.6473    0.3596   -2.5420 H   0  0  0  0  0  0  0  0  0  0  0  0
    0.9407   -3.0351   -0.7107 H   0  0  0  0  0  0  0  0  0  0  0  0
    2.7869   -2.6775   -0.3491 H   0  0  0  0  0  0  0  0  0  0  0  0
  1  2  1  0
  2  3  2  0
  3  4  1  0
  4  5  2  0
  5  6  1  0
  6  7  1  0
  7  8  1  0
  8  9  2  0
  8 10  1  0
  8 11  1  0
  5 12  1  0
 12 13  1  0
 13 14  2  0
 12 15  2  0
 15 16  1  0
 15  2  1  0
  1 17  1  0
  1 18  1  0
  1 19  1  0
  4 20  1  0
  6 21  1  0
  6 22  1  0
 10 23  1  0
 11 24  1  0
 13 25  1  0
 16 26  1  0
M  END
$$$$
