
     RDKit          3D

 20 20  0  0  0  0  0  0  0  0999 V2000
    2.4470    0.8745   -0.8208 N   0  0  0  0  0  0  0  0  0  0  0  0
    1.1634    0.6553   -0.1727 C   0  0  1  0  0  0  0  0  0  0  0  0
    0.1979   -0.0531   -1.0544 C   0  0  0  0  0  0  0  0  0  0  0  0
   -1.1102   -0.2862   -0.4169 C   0  0  0  0  0  0  0  0  0  0  0  0
   -1.4913   -1.4000    0.2918 C   0  0  0  0  0  0  0  0  0  0  0  0
   -2.7714   -1.2572    0.7349 N   0  0  0  0  0  0  0  0  0  0  0  0
   -3.1647   -0.0505    0.2909 C   0  0  0  0  0  0  0  0  0  0  0  0
   -2.1690    0.5312   -0.3993 N   0  0  0  0  0  0  0  0  0  0  0  0
    1.3805   -0.0851    1.0651 C   0  0  0  0  0  0  0  0  0  0  0  0
    0.4571   -0.3281    1.8665 O   0  0  0  0  0  0  0  0  0  0  0  0
    2.6617   -0.5599    1.4051 O   0  0  0  0  0  0  0  0  0  0  0  0
    3.1074    1.1734   -0.0574 H   0  0  0  0  0  0  0  0  0  0  0  0
    2.3897    1.5711   -1.5768 H   0  0  0  0  0  0  0  0  0  0  0  0
    0.7343    1.6662    0.0597 H   0  0  0  0  0  0  0  0  0  0  0  0
    0.0868    0.4496   -2.0405 H   0  0  0  0  0  0  0  0  0  0  0  0
    0.6317   -1.0681   -1.2742 H   0  0  0  0  0  0  0  0  0  0  0  0
   -0.8683   -2.2644    0.4694 H   0  0  0  0  0  0  0  0  0  0  0  0
   -4.1580    0.3425    0.4939 H   0  0  0  0  0  0  0  0  0  0  0  0
   -2.2060    1.4853   -0.8605 H   0  0  0  0  0  0  0  0  0  0  0  0
    2.6814   -1.3965    1.9961 H   0  0  0  0  0  0  0  0  0  0  0  0
  1  2  1  0
  2  3  1  0
  3  4  1  0
  4  5  2  0
  5  6  1  0
  6  7  2  0
  7  8  1  0
  2  9  1  0
  9 10  2  0
  9 11  1  0
  8  4  1  0
  1 12  1  0
  1 13  1  0
  2 14  1  1
  3 15  1  0
  3 16  1  0
  5 17  1  0
  7 18  1  0
  8 19  1  0
 11 20  1  0
M  END
$$$$

     RDKit          3D

 20 20  0  0  0  0  0  0  0  0999 V2000
   -0.6452   -1.2167   -1.0716 N   0  0  0  0  0  0  0  0  0  0  0  0
   -0.9895   -0.5482    0.1730 C   0  0  1  0  0  0  0  0  0  0  0  0
   -0.3225    0.8063    0.1804 C   0  0  0  0  0  0  0  0  0  0  0  0
    1.1315    0.6299    0.0845 C   0  0  0  0  0  0  0  0  0  0  0  0
    2.0810    1.6424    0.0624 C   0  0  0  0  0  0  0  0  0  0  0  0
    3.3029    1.1029   -0.0323 N   0  0  0  0  0  0  0  0  0  0  0  0
    3.1636   -0.2173   -0.0711 C   0  0  0  0  0  0  0  0  0  0  0  0
    1.8530   -0.5190   -0.0011 N   0  0  0  0  0  0  0  0  0  0  0  0
   -2.4600   -0.3747    0.2066 C   0  0  0  0  0  0  0  0  0  0  0  0
   -3.1996   -0.7749   -0.7370 O   0  0  0  0  0  0  0  0  0  0  0  0
   -3.0722    0.2369    1.2831 O   0  0  0  0  0  0  0  0  0  0  0  0
   -0.7509   -0.5402   -1.8551 H   0  0  0  0  0  0  0  0  0  0  0  0
   -1.3146   -2.0205   -1.1856 H   0  0  0  0  0  0  0  0  0  0  0  0
   -0.6708   -1.1699    1.0344 H   0  0  0  0  0  0  0  0  0  0  0  0
   -0.7328    1.3847   -0.6560 H   0  0  0  0  0  0  0  0  0  0  0  0
   -0.6202    1.3609    1.1125 H   0  0  0  0  0  0  0  0  0  0  0  0
    1.8422    2.6886    0.1146 H   0  0  0  0  0  0  0  0  0  0  0  0
    3.9528   -0.9373   -0.1455 H   0  0  0  0  0  0  0  0  0  0  0  0
    1.4694   -1.4839   -0.0122 H   0  0  0  0  0  0  0  0  0  0  0  0
   -4.0183   -0.0500    1.5158 H   0  0  0  0  0  0  0  0  0  0  0  0
  1  2  1  0
  2  3  1  0
  3  4  1  0
  4  5  2  0
  5  6  1  0
  6  7  2  0
  7  8  1  0
  2  9  1  0
  9 10  2  0
  9 11  1  0
  8  4  1  0
  1 12  1  0
  1 13  1  0
  2 14  1  1
  3 15  1  0
  3 16  1  0
  5 17  1  0
  7 18  1  0
  8 19  1  0
 11 20  1  0
M  END
$$$$

     RDKit          3D

 20 20  0  0  0  0  0  0  0  0999 V2000
   -0.9243   -1.0958    1.0348 N   0  0  0  0  0  0  0  0  0  0  0  0
   -1.0739    0.1677    0.3681 C   0  0  1  0  0  0  0  0  0  0  0  0
   -0.2326    0.1254   -0.8941 C   0  0  0  0  0  0  0  0  0  0  0  0
    1.1791   -0.1075   -0.4413 C   0  0  0  0  0  0  0  0  0  0  0  0
    1.8226   -1.3155   -0.2529 C   0  0  0  0  0  0  0  0  0  0  0  0
    3.0890   -1.0883    0.1604 N   0  0  0  0  0  0  0  0  0  0  0  0
    3.2524    0.2435    0.2349 C   0  0  0  0  0  0  0  0  0  0  0  0
    2.0989    0.8300   -0.1286 N   0  0  0  0  0  0  0  0  0  0  0  0
   -2.5057    0.4418    0.0581 C   0  0  0  0  0  0  0  0  0  0  0  0
   -3.4076   -0.3708    0.3691 O   0  0  0  0  0  0  0  0  0  0  0  0
   -2.8780    1.6036   -0.5829 O   0  0  0  0  0  0  0  0  0  0  0  0
   -1.3789   -1.1217    1.9688 H   0  0  0  0  0  0  0  0  0  0  0  0
   -1.1605   -1.9194    0.4410 H   0  0  0  0  0  0  0  0  0  0  0  0
   -0.7257    0.9547    1.0500 H   0  0  0  0  0  0  0  0  0  0  0  0
   -0.5310   -0.7220   -1.5207 H   0  0  0  0  0  0  0  0  0  0  0  0
   -0.2811    1.0696   -1.4371 H   0  0  0  0  0  0  0  0  0  0  0  0
    1.3413   -2.2760   -0.4242 H   0  0  0  0  0  0  0  0  0  0  0  0
    4.1872    0.7343    0.5451 H   0  0  0  0  0  0  0  0  0  0  0  0
    1.9326    1.8516   -0.1658 H   0  0  0  0  0  0  0  0  0  0  0  0
   -3.8037    1.9947   -0.3826 H   0  0  0  0  0  0  0  0  0  0  0  0
  1  2  1  0
  2  3  1  0
  3  4  1  0
  4  5  2  0
  5  6  1  0
  6  7  2  0
  7  8  1  0
  2  9  1  0
  9 10  2  0
  9 11  1  0
  8  4  1  0
  1 12  1  0
  1 13  1  0
  2 14  1  1
  3 15  1  0
  3 16  1  0
  5 17  1  0
  7 18  1  0
  8 19  1  0
 11 20  1  0
M  END
$$$$

     RDKit          3D

 20 20  0  0  0  0  0  0  0  0999 V2000
   -1.2079   -0.6900   -1.4727 N   0  0  0  0  0  0  0  0  0  0  0  0
   -1.4215   -0.4905   -0.0529 C   0  0  1  0  0  0  0  0  0  0  0  0
   -0.2838   -0.9977    0.7802 C   0  0  0  0  0  0  0  0  0  0  0  0
    0.9985   -0.3627    0.4926 C   0  0  0  0  0  0  0  0  0  0  0  0
    2.1887   -0.6501    1.1206 C   0  0  0  0  0  0  0  0  0  0  0  0
    3.1394    0.1379    0.5827 N   0  0  0  0  0  0  0  0  0  0  0  0
    2.5807    0.8955   -0.3482 C   0  0  0  0  0  0  0  0  0  0  0  0
    1.2719    0.5900   -0.4039 N   0  0  0  0  0  0  0  0  0  0  0  0
   -1.8220    0.8861    0.2358 C   0  0  0  0  0  0  0  0  0  0  0  0
   -2.0412    1.2233    1.4272 O   0  0  0  0  0  0  0  0  0  0  0  0
   -1.9819    1.8698   -0.7280 O   0  0  0  0  0  0  0  0  0  0  0  0
   -2.0831   -1.0503   -1.9561 H   0  0  0  0  0  0  0  0  0  0  0  0
   -0.4685   -1.3850   -1.6758 H   0  0  0  0  0  0  0  0  0  0  0  0
   -2.3068   -1.1482    0.2018 H   0  0  0  0  0  0  0  0  0  0  0  0
   -0.2043   -2.1035    0.5649 H   0  0  0  0  0  0  0  0  0  0  0  0
   -0.5657   -0.9425    1.8520 H   0  0  0  0  0  0  0  0  0  0  0  0
    2.4088   -1.3592    1.9069 H   0  0  0  0  0  0  0  0  0  0  0  0
    3.1253    1.6279   -0.9434 H   0  0  0  0  0  0  0  0  0  0  0  0
    0.6238    1.0733   -1.0799 H   0  0  0  0  0  0  0  0  0  0  0  0
   -1.9503    2.8758   -0.5037 H   0  0  0  0  0  0  0  0  0  0  0  0
  1  2  1  0
  2  3  1  0
  3  4  1  0
  4  5  2  0
  5  6  1  0
  6  7  2  0
  7  8  1  0
  2  9  1  0
  9 10  2  0
  9 11  1  0
  8  4  1  0
  1 12  1  0
  1 13  1  0
  2 14  1  1
  3 15  1  0
  3 16  1  0
  5 17  1  0
  7 18  1  0
  8 19  1  0
 11 20  1  0
M  END
$$$$

     RDKit          3D

 20 20  0  0  0  0  0  0  0  0999 V2000
   -1.0173   -1.1302    0.9333 N   0  0  0  0  0  0  0  0  0  0  0  0
   -1.1789    0.1091    0.2433 C   0  0  1  0  0  0  0  0  0  0  0  0
   -0.1014    0.1755   -0.8369 C   0  0  0  0  0  0  0  0  0  0  0  0
    1.2424    0.1056   -0.2147 C   0  0  0  0  0  0  0  0  0  0  0  0
    1.9514    1.2141    0.1955 C   0  0  0  0  0  0  0  0  0  0  0  0
    3.1065    0.7752    0.7032 N   0  0  0  0  0  0  0  0  0  0  0  0
    3.1083   -0.5698    0.6079 C   0  0  0  0  0  0  0  0  0  0  0  0
    1.9632   -0.9826    0.0439 N   0  0  0  0  0  0  0  0  0  0  0  0
   -2.5022    0.2906   -0.3625 C   0  0  0  0  0  0  0  0  0  0  0  0
   -3.3961   -0.5740   -0.2724 O   0  0  0  0  0  0  0  0  0  0  0  0
   -2.7741    1.4544   -1.0569 O   0  0  0  0  0  0  0  0  0  0  0  0
   -1.1090   -1.9681    0.3440 H   0  0  0  0  0  0  0  0  0  0  0  0
   -1.5327   -1.1985    1.8276 H   0  0  0  0  0  0  0  0  0  0  0  0
   -0.9501    0.9340    0.9634 H   0  0  0  0  0  0  0  0  0  0  0  0
   -0.1692    1.1213   -1.4010 H   0  0  0  0  0  0  0  0  0  0  0  0
   -0.2384   -0.6772   -1.5438 H   0  0  0  0  0  0  0  0  0  0  0  0
    1.6628    2.2627    0.1358 H   0  0  0  0  0  0  0  0  0  0  0  0
    3.9324   -1.2034    0.9472 H   0  0  0  0  0  0  0  0  0  0  0  0
    1.7177   -1.9783   -0.1419 H   0  0  0  0  0  0  0  0  0  0  0  0
   -3.7154    1.8396   -1.1149 H   0  0  0  0  0  0  0  0  0  0  0  0
  1  2  1  0
  2  3  1  0
  3  4  1  0
  4  5  2  0
  5  6  1  0
  6  7  2  0
  7  8  1  0
  2  9  1  0
  9 10  2  0
  9 11  1  0
  8  4  1  0
  1 12  1  0
  1 13  1  0
  2 14  1  1
  3 15  1  0
  3 16  1  0
  5 17  1  0
  7 18  1  0
  8 19  1  0
 11 20  1  0
M  END
$$$$

     RDKit          3D

 20 20  0  0  0  0  0  0  0  0999 V2000
   -1.0416    0.2668    1.5483 N   0  0  0  0  0  0  0  0  0  0  0  0
   -1.0599    0.6082    0.1474 C   0  0  1  0  0  0  0  0  0  0  0  0
   -0.1569   -0.3405   -0.6010 C   0  0  0  0  0  0  0  0  0  0  0  0
    1.2284   -0.2450   -0.0969 C   0  0  0  0  0  0  0  0  0  0  0  0
    1.6936    0.5641    0.8988 C   0  0  0  0  0  0  0  0  0  0  0  0
    3.0025    0.3246    1.0246 N   0  0  0  0  0  0  0  0  0  0  0  0
    3.3954   -0.6135    0.1411 C   0  0  0  0  0  0  0  0  0  0  0  0
    2.2866   -0.9467   -0.5355 N   0  0  0  0  0  0  0  0  0  0  0  0
   -2.4397    0.4981   -0.4043 C   0  0  0  0  0  0  0  0  0  0  0  0
   -2.6228    0.7642   -1.6176 O   0  0  0  0  0  0  0  0  0  0  0  0
   -3.5302    0.1182    0.3490 O   0  0  0  0  0  0  0  0  0  0  0  0
   -2.0325    0.2230    1.8749 H   0  0  0  0  0  0  0  0  0  0  0  0
   -0.5684   -0.6273    1.7400 H   0  0  0  0  0  0  0  0  0  0  0  0
   -0.7421    1.6512    0.0244 H   0  0  0  0  0  0  0  0  0  0  0  0
   -0.1512   -0.0084   -1.6641 H   0  0  0  0  0  0  0  0  0  0  0  0
   -0.5456   -1.3617   -0.5725 H   0  0  0  0  0  0  0  0  0  0  0  0
    1.1210    1.2550    1.4670 H   0  0  0  0  0  0  0  0  0  0  0  0
    4.4012   -0.9758    0.0482 H   0  0  0  0  0  0  0  0  0  0  0  0
    2.2350   -1.6477   -1.2960 H   0  0  0  0  0  0  0  0  0  0  0  0
   -4.4726    0.4931    0.1687 H   0  0  0  0  0  0  0  0  0  0  0  0
  1  2  1  0
  2  3  1  0
  3  4  1  0
  4  5  2  0
  5  6  1  0
  6  7  2  0
  7  8  1  0
  2  9  1  0
  9 10  2  0
  9 11  1  0
  8  4  1  0
  1 12  1  0
  1 13  1  0
  2 14  1  1
  3 15  1  0
  3 16  1  0
  5 17  1  0
  7 18  1  0
  8 19  1  0
 11 20  1  0
M  END
$$$$

     RDKit          3D

 20 20  0  0  0  0  0  0  0  0999 V2000
    0.8801   -1.6107    0.0808 N   0  0  0  0  0  0  0  0  0  0  0  0
    1.2118   -0.1910    0.0157 C   0  0  1  0  0  0  0  0  0  0  0  0
    0.0345    0.5857    0.5269 C   0  0  0  0  0  0  0  0  0  0  0  0
   -1.1617    0.3132   -0.3065 C   0  0  0  0  0  0  0  0  0  0  0  0
   -1.2163   -0.5150   -1.3992 C   0  0  0  0  0  0  0  0  0  0  0  0
   -2.4869   -0.5121   -1.9043 N   0  0  0  0  0  0  0  0  0  0  0  0
   -3.2102    0.3129   -1.1275 C   0  0  0  0  0  0  0  0  0  0  0  0
   -2.4033    0.8112   -0.1600 N   0  0  0  0  0  0  0  0  0  0  0  0
    2.3920   -0.0006    0.9046 C   0  0  0  0  0  0  0  0  0  0  0  0
    2.9346   -0.9262    1.5468 O   0  0  0  0  0  0  0  0  0  0  0  0
    2.9179    1.2990    1.0208 O   0  0  0  0  0  0  0  0  0  0  0  0
    0.1604   -1.8123    0.8073 H   0  0  0  0  0  0  0  0  0  0  0  0
    1.7236   -2.2005    0.1447 H   0  0  0  0  0  0  0  0  0  0  0  0
    1.4863    0.0780   -1.0019 H   0  0  0  0  0  0  0  0  0  0  0  0
    0.3196    1.6627    0.4965 H   0  0  0  0  0  0  0  0  0  0  0  0
   -0.1471    0.3654    1.6057 H   0  0  0  0  0  0  0  0  0  0  0  0
   -0.4224   -1.0933   -1.8303 H   0  0  0  0  0  0  0  0  0  0  0  0
   -4.2604    0.5236   -1.2757 H   0  0  0  0  0  0  0  0  0  0  0  0
   -2.6647    1.4767    0.5958 H   0  0  0  0  0  0  0  0  0  0  0  0
    3.9123    1.4333    1.1744 H   0  0  0  0  0  0  0  0  0  0  0  0
  1  2  1  0
  2  3  1  0
  3  4  1  0
  4  5  2  0
  5  6  1  0
  6  7  2  0
  7  8  1  0
  2  9  1  0
  9 10  2  0
  9 11  1  0
  8  4  1  0
  1 12  1  0
  1 13  1  0
  2 14  1  6
  3 15  1  0
  3 16  1  0
  5 17  1  0
  7 18  1  0
  8 19  1  0
 11 20  1  0
M  END
$$$$

     RDKit          3D

 20 20  0  0  0  0  0  0  0  0999 V2000
    2.0246   -1.9506   -0.2979 N   0  0  0  0  0  0  0  0  0  0  0  0
    1.1396   -0.7975   -0.5276 C   0  0  1  0  0  0  0  0  0  0  0  0
   -0.0153   -0.9774    0.4190 C   0  0  0  0  0  0  0  0  0  0  0  0
   -1.0197    0.0892    0.3365 C   0  0  0  0  0  0  0  0  0  0  0  0
   -1.0264    1.2469    1.0715 C   0  0  0  0  0  0  0  0  0  0  0  0
   -2.1212    1.9583    0.6931 N   0  0  0  0  0  0  0  0  0  0  0  0
   -2.7719    1.2697   -0.2424 C   0  0  0  0  0  0  0  0  0  0  0  0
   -2.1039    0.1381   -0.4574 N   0  0  0  0  0  0  0  0  0  0  0  0
    1.8717    0.4632   -0.2492 C   0  0  0  0  0  0  0  0  0  0  0  0
    3.0692    0.3964    0.1405 O   0  0  0  0  0  0  0  0  0  0  0  0
    1.2488    1.6830   -0.4158 O   0  0  0  0  0  0  0  0  0  0  0  0
    1.5448   -2.7557   -0.7494 H   0  0  0  0  0  0  0  0  0  0  0  0
    2.0783   -2.0631    0.7527 H   0  0  0  0  0  0  0  0  0  0  0  0
    0.7779   -0.8398   -1.5718 H   0  0  0  0  0  0  0  0  0  0  0  0
   -0.5163   -1.9448    0.2497 H   0  0  0  0  0  0  0  0  0  0  0  0
    0.3943   -1.0441    1.4698 H   0  0  0  0  0  0  0  0  0  0  0  0
   -0.3402    1.6120    1.8272 H   0  0  0  0  0  0  0  0  0  0  0  0
   -3.6865    1.6005   -0.7270 H   0  0  0  0  0  0  0  0  0  0  0  0
   -2.3467   -0.6162   -1.1243 H   0  0  0  0  0  0  0  0  0  0  0  0
    1.7989    2.5321   -0.5972 H   0  0  0  0  0  0  0  0  0  0  0  0
  1  2  1  0
  2  3  1  0
  3  4  1  0
  4  5  2  0
  5  6  1  0
  6  7  2  0
  7  8  1  0
  2  9  1  0
  9 10  2  0
  9 11  1  0
  8  4  1  0
  1 12  1  0
  1 13  1  0
  2 14  1  6
  3 15  1  0
  3 16  1  0
  5 17  1  0
  7 18  1  0
  8 19  1  0
 11 20  1  0
M  END
$$$$

     RDKit          3D

 20 20  0  0  0  0  0  0  0  0999 V2000
    2.1277   -1.8202    0.1314 N   0  0  0  0  0  0  0  0  0  0  0  0
    1.3493   -0.6197   -0.0841 C   0  0  1  0  0  0  0  0  0  0  0  0
   -0.0872   -1.0947   -0.3230 C   0  0  0  0  0  0  0  0  0  0  0  0
   -1.0269    0.0033   -0.5615 C   0  0  0  0  0  0  0  0  0  0  0  0
   -1.3393    0.5516   -1.7877 C   0  0  0  0  0  0  0  0  0  0  0  0
   -2.2366    1.5253   -1.5706 N   0  0  0  0  0  0  0  0  0  0  0  0
   -2.5007    1.6126   -0.2659 C   0  0  0  0  0  0  0  0  0  0  0  0
   -1.7536    0.6736    0.3508 N   0  0  0  0  0  0  0  0  0  0  0  0
    1.4355    0.2923    1.0721 C   0  0  0  0  0  0  0  0  0  0  0  0
    2.1182   -0.0554    2.0599 O   0  0  0  0  0  0  0  0  0  0  0  0
    0.7838    1.5069    1.0808 O   0  0  0  0  0  0  0  0  0  0  0  0
    3.0410   -1.6649    0.5634 H   0  0  0  0  0  0  0  0  0  0  0  0
    1.5698   -2.6004    0.4981 H   0  0  0  0  0  0  0  0  0  0  0  0
    1.7200   -0.1410   -0.9903 H   0  0  0  0  0  0  0  0  0  0  0  0
   -0.0996   -1.7784   -1.1961 H   0  0  0  0  0  0  0  0  0  0  0  0
   -0.4351   -1.7169    0.5422 H   0  0  0  0  0  0  0  0  0  0  0  0
   -0.9225    0.2389   -2.7577 H   0  0  0  0  0  0  0  0  0  0  0  0
   -3.1670    2.2766    0.2627 H   0  0  0  0  0  0  0  0  0  0  0  0
   -1.7500    0.5010    1.3900 H   0  0  0  0  0  0  0  0  0  0  0  0
    1.1732    2.3096    1.5855 H   0  0  0  0  0  0  0  0  0  0  0  0
  1  2  1  0
  2  3  1  0
  3  4  1  0
  4  5  2  0
  5  6  1  0
  6  7  2  0
  7  8  1  0
  2  9  1  0
  9 10  2  0
  9 11  1  0
  8  4  1  0
  1 12  1  0
  1 13  1  0
  2 14  1  6
  3 15  1  0
  3 16  1  0
  5 17  1  0
  7 18  1  0
  8 19  1  0
 11 20  1  0
M  END
$$$$

     RDKit          3D

 20 20  0  0  0  0  0  0  0  0999 V2000
   -2.4775   -1.3012   -0.5070 N   0  0  0  0  0  0  0  0  0  0  0  0
   -1.3015   -0.6979    0.1041 C   0  0  1  0  0  0  0  0  0  0  0  0
   -0.1983   -0.5159   -0.9027 C   0  0  0  0  0  0  0  0  0  0  0  0
    1.0284    0.0928   -0.3479 C   0  0  0  0  0  0  0  0  0  0  0  0
    1.3435    1.4373   -0.2963 C   0  0  0  0  0  0  0  0  0  0  0  0
    2.5639    1.5522    0.2946 N   0  0  0  0  0  0  0  0  0  0  0  0
    2.9904    0.3035    0.5999 C   0  0  0  0  0  0  0  0  0  0  0  0
    2.0691   -0.5769    0.2147 N   0  0  0  0  0  0  0  0  0  0  0  0
   -1.7184    0.5857    0.6911 C   0  0  0  0  0  0  0  0  0  0  0  0
   -2.8917    1.0394    0.5729 O   0  0  0  0  0  0  0  0  0  0  0  0
   -0.7936    1.3312    1.4037 O   0  0  0  0  0  0  0  0  0  0  0  0
   -2.4656   -1.1434   -1.5349 H   0  0  0  0  0  0  0  0  0  0  0  0
   -2.5785   -2.3074   -0.2615 H   0  0  0  0  0  0  0  0  0  0  0  0
   -0.9671   -1.4072    0.8869 H   0  0  0  0  0  0  0  0  0  0  0  0
    0.0266   -1.5400   -1.3227 H   0  0  0  0  0  0  0  0  0  0  0  0
   -0.5691    0.0554   -1.8027 H   0  0  0  0  0  0  0  0  0  0  0  0
    0.7529    2.2851   -0.6524 H   0  0  0  0  0  0  0  0  0  0  0  0
    3.9297    0.0764    1.0788 H   0  0  0  0  0  0  0  0  0  0  0  0
    2.1174   -1.6105    0.3177 H   0  0  0  0  0  0  0  0  0  0  0  0
   -0.8610    2.3416    1.5115 H   0  0  0  0  0  0  0  0  0  0  0  0
  1  2  1  0
  2  3  1  0
  3  4  1  0
  4  5  2  0
  5  6  1  0
  6  7  2  0
  7  8  1  0
  2  9  1  0
  9 10  2  0
  9 11  1  0
  8  4  1  0
  1 12  1  0
  1 13  1  0
  2 14  1  1
  3 15  1  0
  3 16  1  0
  5 17  1  0
  7 18  1  0
  8 19  1  0
 11 20  1  0
M  END
$$$$

     RDKit          3D

 20 20  0  0  0  0  0  0  0  0999 V2000
    0.8263   -0.3343    1.6425 N   0  0  0  0  0  0  0  0  0  0  0  0
    1.1281   -0.5853    0.2327 C   0  0  1  0  0  0  0  0  0  0  0  0
    0.2541    0.3656   -0.5805 C   0  0  0  0  0  0  0  0  0  0  0  0
   -1.1640    0.0697   -0.2703 C   0  0  0  0  0  0  0  0  0  0  0  0
   -1.7255   -0.8544    0.5674 C   0  0  0  0  0  0  0  0  0  0  0  0
   -3.0444   -0.7265    0.4988 N   0  0  0  0  0  0  0  0  0  0  0  0
   -3.3227    0.2690   -0.3739 C   0  0  0  0  0  0  0  0  0  0  0  0
   -2.1827    0.7637   -0.8507 N   0  0  0  0  0  0  0  0  0  0  0  0
    2.5544   -0.3067   -0.0257 C   0  0  0  0  0  0  0  0  0  0  0  0
    3.0150   -0.4626   -1.1840 O   0  0  0  0  0  0  0  0  0  0  0  0
    3.4067    0.1249    0.9793 O   0  0  0  0  0  0  0  0  0  0  0  0
    0.1946    0.4888    1.7638 H   0  0  0  0  0  0  0  0  0  0  0  0
    1.7024   -0.1132    2.1405 H   0  0  0  0  0  0  0  0  0  0  0  0
    0.8644   -1.6285    0.0030 H   0  0  0  0  0  0  0  0  0  0  0  0
    0.4548    0.1601   -1.6593 H   0  0  0  0  0  0  0  0  0  0  0  0
    0.5192    1.3996   -0.3183 H   0  0  0  0  0  0  0  0  0  0  0  0
   -1.1661   -1.5544    1.1688 H   0  0  0  0  0  0  0  0  0  0  0  0
   -4.3206    0.5740   -0.6103 H   0  0  0  0  0  0  0  0  0  0  0  0
   -2.1291    1.5423   -1.5425 H   0  0  0  0  0  0  0  0  0  0  0  0
    4.1352    0.8081    0.7779 H   0  0  0  0  0  0  0  0  0  0  0  0
  1  2  1  0
  2  3  1  0
  3  4  1  0
  4  5  2  0
  5  6  1  0
  6  7  2  0
  7  8  1  0
  2  9  1  0
  9 10  2  0
  9 11  1  0
  8  4  1  0
  1 12  1  0
  1 13  1  0
  2 14  1  6
  3 15  1  0
  3 16  1  0
  5 17  1  0
  7 18  1  0
  8 19  1  0
 11 20  1  0
M  END
$$$$

     RDKit          3D

 20 20  0  0  0  0  0  0  0  0999 V2000
   -2.5180   -1.2326   -0.2255 N   0  0  0  0  0  0  0  0  0  0  0  0
   -1.4105   -0.4269    0.2447 C   0  0  1  0  0  0  0  0  0  0  0  0
   -0.1450   -1.0446   -0.2932 C   0  0  0  0  0  0  0  0  0  0  0  0
    1.0680   -0.3339    0.1017 C   0  0  0  0  0  0  0  0  0  0  0  0
    1.8208   -0.5683    1.2250 C   0  0  0  0  0  0  0  0  0  0  0  0
    2.8652    0.3058    1.2239 N   0  0  0  0  0  0  0  0  0  0  0  0
    2.7381    1.0463    0.1228 C   0  0  0  0  0  0  0  0  0  0  0  0
    1.6489    0.6688   -0.5707 N   0  0  0  0  0  0  0  0  0  0  0  0
   -1.6102    0.9548   -0.1809 C   0  0  0  0  0  0  0  0  0  0  0  0
   -2.6288    1.2563   -0.8462 O   0  0  0  0  0  0  0  0  0  0  0  0
   -0.7268    1.9944    0.1057 O   0  0  0  0  0  0  0  0  0  0  0  0
   -2.4919   -1.2790   -1.2719 H   0  0  0  0  0  0  0  0  0  0  0  0
   -2.4703   -2.1985    0.1837 H   0  0  0  0  0  0  0  0  0  0  0  0
   -1.4148   -0.4781    1.3644 H   0  0  0  0  0  0  0  0  0  0  0  0
   -0.2347   -1.1642   -1.3916 H   0  0  0  0  0  0  0  0  0  0  0  0
   -0.1049   -2.0911    0.1209 H   0  0  0  0  0  0  0  0  0  0  0  0
    1.6834   -1.2966    2.0227 H   0  0  0  0  0  0  0  0  0  0  0  0
    3.4184    1.8476   -0.1796 H   0  0  0  0  0  0  0  0  0  0  0  0
    1.3602    1.1194   -1.4706 H   0  0  0  0  0  0  0  0  0  0  0  0
   -0.8471    2.9205   -0.2856 H   0  0  0  0  0  0  0  0  0  0  0  0
  1  2  1  0
  2  3  1  0
  3  4  1  0
  4  5  2  0
  5  6  1  0
  6  7  2  0
  7  8  1  0
  2  9  1  0
  9 10  2  0
  9 11  1  0
  8  4  1  0
  1 12  1  0
  1 13  1  0
  2 14  1  1
  3 15  1  0
  3 16  1  0
  5 17  1  0
  7 18  1  0
  8 19  1  0
 11 20  1  0
M  END
$$$$

     RDKit          3D

 20 20  0  0  0  0  0  0  0  0999 V2000
   -2.4720   -0.5992   -0.8700 N   0  0  0  0  0  0  0  0  0  0  0  0
   -1.1682   -0.5512   -0.1740 C   0  0  1  0  0  0  0  0  0  0  0  0
   -0.1406    0.0842   -1.0614 C   0  0  0  0  0  0  0  0  0  0  0  0
    1.1562    0.1360   -0.3812 C   0  0  0  0  0  0  0  0  0  0  0  0
    1.7210    1.1240    0.3907 C   0  0  0  0  0  0  0  0  0  0  0  0
    2.9257    0.7096    0.8024 N   0  0  0  0  0  0  0  0  0  0  0  0
    3.1338   -0.5075    0.3125 C   0  0  0  0  0  0  0  0  0  0  0  0
    2.0722   -0.8747   -0.4090 N   0  0  0  0  0  0  0  0  0  0  0  0
   -1.3572    0.2710    1.0310 C   0  0  0  0  0  0  0  0  0  0  0  0
   -0.4440    0.3772    1.8705 O   0  0  0  0  0  0  0  0  0  0  0  0
   -2.5534    0.9279    1.2308 O   0  0  0  0  0  0  0  0  0  0  0  0
   -2.9463    0.3303   -0.7319 H   0  0  0  0  0  0  0  0  0  0  0  0
   -3.0354   -1.2980   -0.3277 H   0  0  0  0  0  0  0  0  0  0  0  0
   -0.9059   -1.6101    0.0708 H   0  0  0  0  0  0  0  0  0  0  0  0
   -0.4632    1.1284   -1.2542 H   0  0  0  0  0  0  0  0  0  0  0  0
   -0.0775   -0.4092   -2.0611 H   0  0  0  0  0  0  0  0  0  0  0  0
    1.2788    2.0774    0.6270 H   0  0  0  0  0  0  0  0  0  0  0  0
    4.0118   -1.1394    0.4509 H   0  0  0  0  0  0  0  0  0  0  0  0
    1.9655   -1.7957   -0.9147 H   0  0  0  0  0  0  0  0  0  0  0  0
   -2.7013    1.6188    1.9560 H   0  0  0  0  0  0  0  0  0  0  0  0
  1  2  1  0
  2  3  1  0
  3  4  1  0
  4  5  2  0
  5  6  1  0
  6  7  2  0
  7  8  1  0
  2  9  1  0
  9 10  2  0
  9 11  1  0
  8  4  1  0
  1 12  1  0
  1 13  1  0
  2 14  1  1
  3 15  1  0
  3 16  1  0
  5 17  1  0
  7 18  1  0
  8 19  1  0
 11 20  1  0
M  END
$$$$

     RDKit          3D

 20 20  0  0  0  0  0  0  0  0999 V2000
   -2.4370   -1.3741    0.0954 N   0  0  0  0  0  0  0  0  0  0  0  0
   -1.3563   -0.3801    0.3352 C   0  0  1  0  0  0  0  0  0  0  0  0
   -0.1205   -0.9849   -0.2308 C   0  0  0  0  0  0  0  0  0  0  0  0
    1.1154   -0.2182   -0.0874 C   0  0  0  0  0  0  0  0  0  0  0  0
    2.3049   -0.6302   -0.7036 C   0  0  0  0  0  0  0  0  0  0  0  0
    3.2599    0.2274   -0.3874 N   0  0  0  0  0  0  0  0  0  0  0  0
    2.7728    1.1805    0.4006 C   0  0  0  0  0  0  0  0  0  0  0  0
    1.4602    0.8834    0.5682 N   0  0  0  0  0  0  0  0  0  0  0  0
   -1.8204    0.8109   -0.4571 C   0  0  0  0  0  0  0  0  0  0  0  0
   -2.9240    0.8043   -1.1035 O   0  0  0  0  0  0  0  0  0  0  0  0
   -1.1145    1.9924   -0.5573 O   0  0  0  0  0  0  0  0  0  0  0  0
   -2.0267   -2.2976    0.3702 H   0  0  0  0  0  0  0  0  0  0  0  0
   -2.6025   -1.4161   -0.9336 H   0  0  0  0  0  0  0  0  0  0  0  0
   -1.3157   -0.2103    1.4030 H   0  0  0  0  0  0  0  0  0  0  0  0
   -0.2780   -1.3202   -1.2975 H   0  0  0  0  0  0  0  0  0  0  0  0
    0.0545   -1.9650    0.3072 H   0  0  0  0  0  0  0  0  0  0  0  0
    2.4292   -1.4914   -1.3265 H   0  0  0  0  0  0  0  0  0  0  0  0
    3.3068    2.0156    0.8200 H   0  0  0  0  0  0  0  0  0  0  0  0
    0.8486    1.4605    1.1493 H   0  0  0  0  0  0  0  0  0  0  0  0
   -1.5566    2.9132   -0.4785 H   0  0  0  0  0  0  0  0  0  0  0  0
  1  2  1  0
  2  3  1  0
  3  4  1  0
  4  5  2  0
  5  6  1  0
  6  7  2  0
  7  8  1  0
  2  9  1  0
  9 10  2  0
  9 11  1  0
  8  4  1  0
  1 12  1  0
  1 13  1  0
  2 14  1  1
  3 15  1  0
  3 16  1  0
  5 17  1  0
  7 18  1  0
  8 19  1  0
 11 20  1  0
M  END
$$$$

     RDKit          3D

 20 20  0  0  0  0  0  0  0  0999 V2000
    2.4755   -0.7533   -0.8471 N   0  0  0  0  0  0  0  0  0  0  0  0
    1.2422   -0.0716   -0.5782 C   0  0  1  0  0  0  0  0  0  0  0  0
    0.0704   -1.0037   -0.4513 C   0  0  0  0  0  0  0  0  0  0  0  0
   -1.2056   -0.3124   -0.1710 C   0  0  0  0  0  0  0  0  0  0  0  0
   -2.1226    0.1957   -1.0896 C   0  0  0  0  0  0  0  0  0  0  0  0
   -3.1474    0.7371   -0.4140 N   0  0  0  0  0  0  0  0  0  0  0  0
   -2.8910    0.5789    0.8793 C   0  0  0  0  0  0  0  0  0  0  0  0
   -1.7320   -0.0479    1.0435 N   0  0  0  0  0  0  0  0  0  0  0  0
    1.4075    0.8311    0.5788 C   0  0  0  0  0  0  0  0  0  0  0  0
    0.4467    1.5518    0.9462 O   0  0  0  0  0  0  0  0  0  0  0  0
    2.5929    0.9202    1.2884 O   0  0  0  0  0  0  0  0  0  0  0  0
    2.6500   -1.5864   -0.2877 H   0  0  0  0  0  0  0  0  0  0  0  0
    2.7771   -0.7591   -1.8196 H   0  0  0  0  0  0  0  0  0  0  0  0
    1.0365    0.5846   -1.4640 H   0  0  0  0  0  0  0  0  0  0  0  0
   -0.0015   -1.7046   -1.3006 H   0  0  0  0  0  0  0  0  0  0  0  0
    0.2921   -1.6581    0.4431 H   0  0  0  0  0  0  0  0  0  0  0  0
   -1.9579    0.1234   -2.1509 H   0  0  0  0  0  0  0  0  0  0  0  0
   -3.5338    0.9126    1.6867 H   0  0  0  0  0  0  0  0  0  0  0  0
   -1.2728   -0.3128    1.9510 H   0  0  0  0  0  0  0  0  0  0  0  0
    2.8737    1.7745    1.7570 H   0  0  0  0  0  0  0  0  0  0  0  0
  1  2  1  0
  2  3  1  0
  3  4  1  0
  4  5  2  0
  5  6  1  0
  6  7  2  0
  7  8  1  0
  2  9  1  0
  9 10  2  0
  9 11  1  0
  8  4  1  0
  1 12  1  0
  1 13  1  0
  2 14  1  6
  3 15  1  0
  3 16  1  0
  5 17  1  0
  7 18  1  0
  8 19  1  0
 11 20  1  0
M  END
$$$$

     RDKit          3D

 20 20  0  0  0  0  0  0  0  0999 V2000
   -2.5585    1.1034   -0.3739 N   0  0  0  0  0  0  0  0  0  0  0  0
   -1.3378    0.2583   -0.4830 C   0  0  1  0  0  0  0  0  0  0  0  0
   -0.1901    0.9896    0.1034 C   0  0  0  0  0  0  0  0  0  0  0  0
    1.1177    0.3495    0.0487 C   0  0  0  0  0  0  0  0  0  0  0  0
    2.2455    0.8417    0.7293 C   0  0  0  0  0  0  0  0  0  0  0  0
    3.2674    0.0260    0.4215 N   0  0  0  0  0  0  0  0  0  0  0  0
    2.8675   -0.9389   -0.3996 C   0  0  0  0  0  0  0  0  0  0  0  0
    1.5388   -0.7291   -0.6234 N   0  0  0  0  0  0  0  0  0  0  0  0
   -1.6983   -0.9669    0.2976 C   0  0  0  0  0  0  0  0  0  0  0  0
   -2.8656   -1.1186    0.8075 O   0  0  0  0  0  0  0  0  0  0  0  0
   -0.8526   -2.0277    0.5485 O   0  0  0  0  0  0  0  0  0  0  0  0
   -2.4308    1.9873   -0.8885 H   0  0  0  0  0  0  0  0  0  0  0  0
   -2.8472    1.2040    0.6082 H   0  0  0  0  0  0  0  0  0  0  0  0
   -1.1851    0.0889   -1.5468 H   0  0  0  0  0  0  0  0  0  0  0  0
   -0.4519    1.3376    1.1461 H   0  0  0  0  0  0  0  0  0  0  0  0
   -0.1110    1.9662   -0.4633 H   0  0  0  0  0  0  0  0  0  0  0  0
    2.2463    1.7191    1.3725 H   0  0  0  0  0  0  0  0  0  0  0  0
    3.4313   -1.7659   -0.8455 H   0  0  0  0  0  0  0  0  0  0  0  0
    0.9426   -1.3207   -1.2460 H   0  0  0  0  0  0  0  0  0  0  0  0
   -1.1281   -3.0038    0.4491 H   0  0  0  0  0  0  0  0  0  0  0  0
  1  2  1  0
  2  3  1  0
  3  4  1  0
  4  5  2  0
  5  6  1  0
  6  7  2  0
  7  8  1  0
  2  9  1  0
  9 10  2  0
  9 11  1  0
  8  4  1  0
  1 12  1  0
  1 13  1  0
  2 14  1  6
  3 15  1  0
  3 16  1  0
  5 17  1  0
  7 18  1  0
  8 19  1  0
 11 20  1  0
M  END
$$$$

     RDKit          3D

 20 20  0  0  0  0  0  0  0  0999 V2000
   -0.8399    1.2907    0.3428 N   0  0  0  0  0  0  0  0  0  0  0  0
   -1.0606    0.0673   -0.4095 C   0  0  1  0  0  0  0  0  0  0  0  0
   -0.1586   -0.9988    0.1767 C   0  0  0  0  0  0  0  0  0  0  0  0
    1.2441   -0.5009    0.0267 C   0  0  0  0  0  0  0  0  0  0  0  0
    2.0455   -0.7505   -1.0852 C   0  0  0  0  0  0  0  0  0  0  0  0
    3.2083   -0.1364   -0.8227 N   0  0  0  0  0  0  0  0  0  0  0  0
    3.1935    0.4719    0.3579 C   0  0  0  0  0  0  0  0  0  0  0  0
    1.9689    0.2422    0.8828 N   0  0  0  0  0  0  0  0  0  0  0  0
   -2.4868   -0.2960   -0.3127 C   0  0  0  0  0  0  0  0  0  0  0  0
   -2.8969   -1.3233   -0.8915 O   0  0  0  0  0  0  0  0  0  0  0  0
   -3.3799    0.4736    0.4035 O   0  0  0  0  0  0  0  0  0  0  0  0
   -1.3634    1.3073    1.2281 H   0  0  0  0  0  0  0  0  0  0  0  0
   -0.9849    2.1434   -0.2452 H   0  0  0  0  0  0  0  0  0  0  0  0
   -0.7645    0.2186   -1.4720 H   0  0  0  0  0  0  0  0  0  0  0  0
   -0.2888   -1.9480   -0.3394 H   0  0  0  0  0  0  0  0  0  0  0  0
   -0.3817   -1.0594    1.2571 H   0  0  0  0  0  0  0  0  0  0  0  0
    1.7830   -1.3190   -1.9704 H   0  0  0  0  0  0  0  0  0  0  0  0
    3.9491    1.0516    0.8755 H   0  0  0  0  0  0  0  0  0  0  0  0
    1.6007    0.5697    1.8025 H   0  0  0  0  0  0  0  0  0  0  0  0
   -4.3871    0.4962    0.1950 H   0  0  0  0  0  0  0  0  0  0  0  0
  1  2  1  0
  2  3  1  0
  3  4  1  0
  4  5  2  0
  5  6  1  0
  6  7  2  0
  7  8  1  0
  2  9  1  0
  9 10  2  0
  9 11  1  0
  8  4  1  0
  1 12  1  0
  1 13  1  0
  2 14  1  6
  3 15  1  0
  3 16  1  0
  5 17  1  0
  7 18  1  0
  8 19  1  0
 11 20  1  0
M  END
$$$$

     RDKit          3D

 20 20  0  0  0  0  0  0  0  0999 V2000
   -1.1566   -0.5740    1.1802 N   0  0  0  0  0  0  0  0  0  0  0  0
   -0.9747    0.5211    0.2755 C   0  0  1  0  0  0  0  0  0  0  0  0
   -0.0986    0.1159   -0.9079 C   0  0  0  0  0  0  0  0  0  0  0  0
    1.2283   -0.3161   -0.4129 C   0  0  0  0  0  0  0  0  0  0  0  0
    1.5793   -1.5984   -0.0601 C   0  0  0  0  0  0  0  0  0  0  0  0
    2.8775   -1.5071    0.3265 N   0  0  0  0  0  0  0  0  0  0  0  0
    3.2919   -0.2391    0.2146 C   0  0  0  0  0  0  0  0  0  0  0  0
    2.2734    0.5112   -0.2449 N   0  0  0  0  0  0  0  0  0  0  0  0
   -2.2717    1.0042   -0.2146 C   0  0  0  0  0  0  0  0  0  0  0  0
   -2.3265    1.9649   -1.0226 O   0  0  0  0  0  0  0  0  0  0  0  0
   -3.4727    0.4385    0.1797 O   0  0  0  0  0  0  0  0  0  0  0  0
   -1.0650   -1.4881    0.7128 H   0  0  0  0  0  0  0  0  0  0  0  0
   -2.1029   -0.5148    1.6280 H   0  0  0  0  0  0  0  0  0  0  0  0
   -0.4369    1.3337    0.8339 H   0  0  0  0  0  0  0  0  0  0  0  0
   -0.6150   -0.7252   -1.4090 H   0  0  0  0  0  0  0  0  0  0  0  0
    0.0109    0.9457   -1.6265 H   0  0  0  0  0  0  0  0  0  0  0  0
    0.9696   -2.4835   -0.0817 H   0  0  0  0  0  0  0  0  0  0  0  0
    4.3000    0.0824    0.4672 H   0  0  0  0  0  0  0  0  0  0  0  0
    2.2972    1.5271   -0.4305 H   0  0  0  0  0  0  0  0  0  0  0  0
   -4.3075    1.0018    0.2683 H   0  0  0  0  0  0  0  0  0  0  0  0
  1  2  1  0
  2  3  1  0
  3  4  1  0
  4  5  2  0
  5  6  1  0
  6  7  2  0
  7  8  1  0
  2  9  1  0
  9 10  2  0
  9 11  1  0
  8  4  1  0
  1 12  1  0
  1 13  1  0
  2 14  1  1
  3 15  1  0
  3 16  1  0
  5 17  1  0
  7 18  1  0
  8 19  1  0
 11 20  1  0
M  END
$$$$

     RDKit          3D

 20 20  0  0  0  0  0  0  0  0999 V2000
   -1.2476   -0.5151   -1.7539 N   0  0  0  0  0  0  0  0  0  0  0  0
   -1.4093   -0.6297   -0.3336 C   0  0  1  0  0  0  0  0  0  0  0  0
   -0.1952   -1.0648    0.3905 C   0  0  0  0  0  0  0  0  0  0  0  0
    0.9672   -0.1812    0.2455 C   0  0  0  0  0  0  0  0  0  0  0  0
    1.1345    0.9906   -0.4499 C   0  0  0  0  0  0  0  0  0  0  0  0
    2.3776    1.4099   -0.2653 N   0  0  0  0  0  0  0  0  0  0  0  0
    3.0123    0.5289    0.5362 C   0  0  0  0  0  0  0  0  0  0  0  0
    2.1564   -0.4584    0.8602 N   0  0  0  0  0  0  0  0  0  0  0  0
   -2.0028    0.6237    0.2518 C   0  0  0  0  0  0  0  0  0  0  0  0
   -2.2240    0.7342    1.4758 O   0  0  0  0  0  0  0  0  0  0  0  0
   -2.3237    1.7000   -0.5575 O   0  0  0  0  0  0  0  0  0  0  0  0
   -1.9590   -1.0560   -2.3018 H   0  0  0  0  0  0  0  0  0  0  0  0
   -0.3132   -0.9545   -1.9955 H   0  0  0  0  0  0  0  0  0  0  0  0
   -2.1982   -1.4147   -0.1647 H   0  0  0  0  0  0  0  0  0  0  0  0
    0.0949   -2.0672    0.0180 H   0  0  0  0  0  0  0  0  0  0  0  0
   -0.4632   -1.1542    1.4786 H   0  0  0  0  0  0  0  0  0  0  0  0
    0.3729    1.4634   -1.0343 H   0  0  0  0  0  0  0  0  0  0  0  0
    4.0503    0.6508    0.8376 H   0  0  0  0  0  0  0  0  0  0  0  0
    2.3895   -1.2662    1.4672 H   0  0  0  0  0  0  0  0  0  0  0  0
   -2.2193    2.6605   -0.2425 H   0  0  0  0  0  0  0  0  0  0  0  0
  1  2  1  0
  2  3  1  0
  3  4  1  0
  4  5  2  0
  5  6  1  0
  6  7  2  0
  7  8  1  0
  2  9  1  0
  9 10  2  0
  9 11  1  0
  8  4  1  0
  1 12  1  0
  1 13  1  0
  2 14  1  6
  3 15  1  0
  3 16  1  0
  5 17  1  0
  7 18  1  0
  8 19  1  0
 11 20  1  0
M  END
$$$$

     RDKit          3D

 20 20  0  0  0  0  0  0  0  0999 V2000
   -2.3756    0.0375    1.2437 N   0  0  0  0  0  0  0  0  0  0  0  0
   -1.0965    0.5273    0.6649 C   0  0  1  0  0  0  0  0  0  0  0  0
   -0.2382   -0.6824    0.5469 C   0  0  0  0  0  0  0  0  0  0  0  0
    1.1163   -0.5014    0.0424 C   0  0  0  0  0  0  0  0  0  0  0  0
    1.9402   -1.5966   -0.2517 C   0  0  0  0  0  0  0  0  0  0  0  0
    3.1017   -1.1209   -0.6573 N   0  0  0  0  0  0  0  0  0  0  0  0
    3.0928    0.2141   -0.6480 C   0  0  0  0  0  0  0  0  0  0  0  0
    1.8650    0.5712   -0.2149 N   0  0  0  0  0  0  0  0  0  0  0  0
   -1.4925    1.0332   -0.6836 C   0  0  0  0  0  0  0  0  0  0  0  0
   -0.6804    1.5125   -1.5064 O   0  0  0  0  0  0  0  0  0  0  0  0
   -2.8295    0.9917   -1.0969 O   0  0  0  0  0  0  0  0  0  0  0  0
   -2.5743   -0.8498    0.7472 H   0  0  0  0  0  0  0  0  0  0  0  0
   -2.1645   -0.1174    2.2531 H   0  0  0  0  0  0  0  0  0  0  0  0
   -0.7224    1.3356    1.2805 H   0  0  0  0  0  0  0  0  0  0  0  0
   -0.7521   -1.4082   -0.1189 H   0  0  0  0  0  0  0  0  0  0  0  0
   -0.1883   -1.1833    1.5397 H   0  0  0  0  0  0  0  0  0  0  0  0
    1.6622   -2.6522   -0.1588 H   0  0  0  0  0  0  0  0  0  0  0  0
    3.8698    0.9054   -0.9177 H   0  0  0  0  0  0  0  0  0  0  0  0
    1.5476    1.5550   -0.0847 H   0  0  0  0  0  0  0  0  0  0  0  0
   -3.0813    1.4287   -1.9796 H   0  0  0  0  0  0  0  0  0  0  0  0
  1  2  1  0
  2  3  1  0
  3  4  1  0
  4  5  2  0
  5  6  1  0
  6  7  2  0
  7  8  1  0
  2  9  1  0
  9 10  2  0
  9 11  1  0
  8  4  1  0
  1 12  1  0
  1 13  1  0
  2 14  1  1
  3 15  1  0
  3 16  1  0
  5 17  1  0
  7 18  1  0
  8 19  1  0
 11 20  1  0
M  END
$$$$

     RDKit          3D

 20 20  0  0  0  0  0  0  0  0999 V2000
   -2.5313   -0.8895    0.1035 N   0  0  0  0  0  0  0  0  0  0  0  0
   -1.2064   -0.3237    0.3574 C   0  0  1  0  0  0  0  0  0  0  0  0
   -0.2222   -0.8047   -0.6717 C   0  0  0  0  0  0  0  0  0  0  0  0
    1.1003   -0.2236   -0.3910 C   0  0  0  0  0  0  0  0  0  0  0  0
    1.6692    0.9600   -0.8690 C   0  0  0  0  0  0  0  0  0  0  0  0
    2.8801    1.0330   -0.3154 N   0  0  0  0  0  0  0  0  0  0  0  0
    3.0839   -0.0295    0.4679 C   0  0  0  0  0  0  0  0  0  0  0  0
    2.0063   -0.8124    0.4363 N   0  0  0  0  0  0  0  0  0  0  0  0
   -1.3159    1.1442    0.4416 C   0  0  0  0  0  0  0  0  0  0  0  0
   -0.3255    1.8596    0.7326 O   0  0  0  0  0  0  0  0  0  0  0  0
   -2.5482    1.7570    0.1927 O   0  0  0  0  0  0  0  0  0  0  0  0
   -2.9267   -1.3303    0.9418 H   0  0  0  0  0  0  0  0  0  0  0  0
   -2.5143   -1.4853   -0.7440 H   0  0  0  0  0  0  0  0  0  0  0  0
   -0.8739   -0.7467    1.3399 H   0  0  0  0  0  0  0  0  0  0  0  0
   -0.1566   -1.9076   -0.5713 H   0  0  0  0  0  0  0  0  0  0  0  0
   -0.5567   -0.5951   -1.7073 H   0  0  0  0  0  0  0  0  0  0  0  0
    1.1810    1.6552   -1.5576 H   0  0  0  0  0  0  0  0  0  0  0  0
    3.9699   -0.2556    1.0525 H   0  0  0  0  0  0  0  0  0  0  0  0
    1.8719   -1.7041    0.9422 H   0  0  0  0  0  0  0  0  0  0  0  0
   -2.5847    2.6993   -0.1811 H   0  0  0  0  0  0  0  0  0  0  0  0
  1  2  1  0
  2  3  1  0
  3  4  1  0
  4  5  2  0
  5  6  1  0
  6  7  2  0
  7  8  1  0
  2  9  1  0
  9 10  2  0
  9 11  1  0
  8  4  1  0
  1 12  1  0
  1 13  1  0
  2 14  1  1
  3 15  1  0
  3 16  1  0
  5 17  1  0
  7 18  1  0
  8 19  1  0
 11 20  1  0
M  END
$$$$

     RDKit          3D

 20 20  0  0  0  0  0  0  0  0999 V2000
   -2.3216   -1.5640    0.2557 N   0  0  0  0  0  0  0  0  0  0  0  0
   -1.1486   -0.7175    0.4463 C   0  0  1  0  0  0  0  0  0  0  0  0
   -0.2059   -0.8656   -0.7255 C   0  0  0  0  0  0  0  0  0  0  0  0
    1.0042   -0.0373   -0.5986 C   0  0  0  0  0  0  0  0  0  0  0  0
    1.1487    1.2550   -1.0701 C   0  0  0  0  0  0  0  0  0  0  0  0
    2.3971    1.6265   -0.7421 N   0  0  0  0  0  0  0  0  0  0  0  0
    3.0043    0.6239   -0.1001 C   0  0  0  0  0  0  0  0  0  0  0  0
    2.1672   -0.4052   -0.0019 N   0  0  0  0  0  0  0  0  0  0  0  0
   -1.5949    0.6764    0.6568 C   0  0  0  0  0  0  0  0  0  0  0  0
   -2.8208    0.9596    0.5990 O   0  0  0  0  0  0  0  0  0  0  0  0
   -0.6825    1.6753    0.9175 O   0  0  0  0  0  0  0  0  0  0  0  0
   -3.1957   -1.0515    0.4352 H   0  0  0  0  0  0  0  0  0  0  0  0
   -2.2291   -2.4427    0.7984 H   0  0  0  0  0  0  0  0  0  0  0  0
   -0.6296   -1.0725    1.3724 H   0  0  0  0  0  0  0  0  0  0  0  0
   -0.7456   -0.5408   -1.6589 H   0  0  0  0  0  0  0  0  0  0  0  0
    0.0414   -1.9286   -0.8618 H   0  0  0  0  0  0  0  0  0  0  0  0
    0.4137    1.8547   -1.5971 H   0  0  0  0  0  0  0  0  0  0  0  0
    4.0353    0.6838    0.2715 H   0  0  0  0  0  0  0  0  0  0  0  0
    2.3757   -1.3110    0.4475 H   0  0  0  0  0  0  0  0  0  0  0  0
   -1.0132    2.5813    1.1559 H   0  0  0  0  0  0  0  0  0  0  0  0
  1  2  1  0
  2  3  1  0
  3  4  1  0
  4  5  2  0
  5  6  1  0
  6  7  2  0
  7  8  1  0
  2  9  1  0
  9 10  2  0
  9 11  1  0
  8  4  1  0
  1 12  1  0
  1 13  1  0
  2 14  1  1
  3 15  1  0
  3 16  1  0
  5 17  1  0
  7 18  1  0
  8 19  1  0
 11 20  1  0
M  END
$$$$

     RDKit          3D

 20 20  0  0  0  0  0  0  0  0999 V2000
   -2.2986   -1.4040   -0.2295 N   0  0  0  0  0  0  0  0  0  0  0  0
   -1.2393   -0.5131    0.2346 C   0  0  1  0  0  0  0  0  0  0  0  0
    0.0589   -1.0685   -0.2813 C   0  0  0  0  0  0  0  0  0  0  0  0
    1.2363   -0.2818    0.1004 C   0  0  0  0  0  0  0  0  0  0  0  0
    2.0021   -0.4488    1.2367 C   0  0  0  0  0  0  0  0  0  0  0  0
    2.9868    0.4434    1.2494 N   0  0  0  0  0  0  0  0  0  0  0  0
    2.8622    1.1751    0.1424 C   0  0  0  0  0  0  0  0  0  0  0  0
    1.7972    0.7408   -0.5655 N   0  0  0  0  0  0  0  0  0  0  0  0
   -1.5381    0.8402   -0.2367 C   0  0  0  0  0  0  0  0  0  0  0  0
   -0.7355    1.7612    0.0634 O   0  0  0  0  0  0  0  0  0  0  0  0
   -2.6443    1.1973   -0.9952 O   0  0  0  0  0  0  0  0  0  0  0  0
   -2.4615   -1.2418   -1.2476 H   0  0  0  0  0  0  0  0  0  0  0  0
   -3.1559   -1.1713    0.3024 H   0  0  0  0  0  0  0  0  0  0  0  0
   -1.2289   -0.5257    1.3387 H   0  0  0  0  0  0  0  0  0  0  0  0
    0.1646   -2.0920    0.1662 H   0  0  0  0  0  0  0  0  0  0  0  0
   -0.0122   -1.2391   -1.3913 H   0  0  0  0  0  0  0  0  0  0  0  0
    1.8488   -1.1909    2.0243 H   0  0  0  0  0  0  0  0  0  0  0  0
    3.5019    1.9871   -0.1535 H   0  0  0  0  0  0  0  0  0  0  0  0
    1.4505    1.1185   -1.4756 H   0  0  0  0  0  0  0  0  0  0  0  0
   -2.5948    1.9134   -1.7322 H   0  0  0  0  0  0  0  0  0  0  0  0
  1  2  1  0
  2  3  1  0
  3  4  1  0
  4  5  2  0
  5  6  1  0
  6  7  2  0
  7  8  1  0
  2  9  1  0
  9 10  2  0
  9 11  1  0
  8  4  1  0
  1 12  1  0
  1 13  1  0
  2 14  1  1
  3 15  1  0
  3 16  1  0
  5 17  1  0
  7 18  1  0
  8 19  1  0
 11 20  1  0
M  END
$$$$

     RDKit          3D

 20 20  0  0  0  0  0  0  0  0999 V2000
   -0.8922    1.8641   -0.5605 N   0  0  0  0  0  0  0  0  0  0  0  0
   -1.3394    0.5058   -0.5777 C   0  0  1  0  0  0  0  0  0  0  0  0
   -0.3245   -0.4553   -1.1207 C   0  0  0  0  0  0  0  0  0  0  0  0
    0.9356   -0.4901   -0.3741 C   0  0  0  0  0  0  0  0  0  0  0  0
    1.9955   -1.3085   -0.7041 C   0  0  0  0  0  0  0  0  0  0  0  0
    2.9812   -1.0886    0.1778 N   0  0  0  0  0  0  0  0  0  0  0  0
    2.5435   -0.1501    1.0417 C   0  0  0  0  0  0  0  0  0  0  0  0
    1.2916    0.2215    0.7103 N   0  0  0  0  0  0  0  0  0  0  0  0
   -1.8923    0.1294    0.7315 C   0  0  0  0  0  0  0  0  0  0  0  0
   -1.9536    0.9327    1.6985 O   0  0  0  0  0  0  0  0  0  0  0  0
   -2.3686   -1.1850    0.8968 O   0  0  0  0  0  0  0  0  0  0  0  0
    0.0131    2.0363   -1.0117 H   0  0  0  0  0  0  0  0  0  0  0  0
   -1.0195    2.3044    0.3651 H   0  0  0  0  0  0  0  0  0  0  0  0
   -2.2199    0.4868   -1.2890 H   0  0  0  0  0  0  0  0  0  0  0  0
   -0.0840   -0.0944   -2.1631 H   0  0  0  0  0  0  0  0  0  0  0  0
   -0.7319   -1.4849   -1.1475 H   0  0  0  0  0  0  0  0  0  0  0  0
    2.0866   -2.0219   -1.5115 H   0  0  0  0  0  0  0  0  0  0  0  0
    3.1408    0.2171    1.8595 H   0  0  0  0  0  0  0  0  0  0  0  0
    0.7482    0.9280    1.2263 H   0  0  0  0  0  0  0  0  0  0  0  0
   -2.9102   -1.3473    1.7522 H   0  0  0  0  0  0  0  0  0  0  0  0
  1  2  1  0
  2  3  1  0
  3  4  1  0
  4  5  2  0
  5  6  1  0
  6  7  2  0
  7  8  1  0
  2  9  1  0
  9 10  2  0
  9 11  1  0
  8  4  1  0
  1 12  1  0
  1 13  1  0
  2 14  1  6
  3 15  1  0
  3 16  1  0
  5 17  1  0
  7 18  1  0
  8 19  1  0
 11 20  1  0
M  END
$$$$

     RDKit          3D

 20 20  0  0  0  0  0  0  0  0999 V2000
   -2.5717   -0.7519    0.3111 N   0  0  0  0  0  0  0  0  0  0  0  0
   -1.2408   -0.1855    0.5343 C   0  0  1  0  0  0  0  0  0  0  0  0
   -0.3068   -0.8335   -0.4614 C   0  0  0  0  0  0  0  0  0  0  0  0
    1.0730   -0.3645   -0.3605 C   0  0  0  0  0  0  0  0  0  0  0  0
    1.6821    0.6889   -1.0032 C   0  0  0  0  0  0  0  0  0  0  0  0
    2.9679    0.7674   -0.6180 N   0  0  0  0  0  0  0  0  0  0  0  0
    3.1736   -0.2241    0.2588 C   0  0  0  0  0  0  0  0  0  0  0  0
    2.0378   -0.8955    0.4074 N   0  0  0  0  0  0  0  0  0  0  0  0
   -1.2806    1.2712    0.4408 C   0  0  0  0  0  0  0  0  0  0  0  0
   -0.2349    1.9407    0.6029 O   0  0  0  0  0  0  0  0  0  0  0  0
   -2.4562    1.9481    0.1744 O   0  0  0  0  0  0  0  0  0  0  0  0
   -2.5416   -1.7590    0.5076 H   0  0  0  0  0  0  0  0  0  0  0  0
   -2.8997   -0.5296   -0.6520 H   0  0  0  0  0  0  0  0  0  0  0  0
   -0.9667   -0.4676    1.5716 H   0  0  0  0  0  0  0  0  0  0  0  0
   -0.7306   -0.7389   -1.4830 H   0  0  0  0  0  0  0  0  0  0  0  0
   -0.3418   -1.9393   -0.2326 H   0  0  0  0  0  0  0  0  0  0  0  0
    1.1382    1.3229   -1.7078 H   0  0  0  0  0  0  0  0  0  0  0  0
    4.0974   -0.4385    0.7554 H   0  0  0  0  0  0  0  0  0  0  0  0
    1.9104   -1.7289    1.0396 H   0  0  0  0  0  0  0  0  0  0  0  0
   -2.5089    2.9175   -0.0855 H   0  0  0  0  0  0  0  0  0  0  0  0
  1  2  1  0
  2  3  1  0
  3  4  1  0
  4  5  2  0
  5  6  1  0
  6  7  2  0
  7  8  1  0
  2  9  1  0
  9 10  2  0
  9 11  1  0
  8  4  1  0
  1 12  1  0
  1 13  1  0
  2 14  1  1
  3 15  1  0
  3 16  1  0
  5 17  1  0
  7 18  1  0
  8 19  1  0
 11 20  1  0
M  END
$$$$

     RDKit          3D

 20 20  0  0  0  0  0  0  0  0999 V2000
   -2.0732   -1.4283    1.1942 N   0  0  0  0  0  0  0  0  0  0  0  0
   -1.1113   -0.3492    0.8625 C   0  0  1  0  0  0  0  0  0  0  0  0
    0.0566   -1.0188    0.2358 C   0  0  0  0  0  0  0  0  0  0  0  0
    1.1790   -0.1548   -0.1442 C   0  0  0  0  0  0  0  0  0  0  0  0
    2.2540   -0.6663   -0.8824 C   0  0  0  0  0  0  0  0  0  0  0  0
    3.1342    0.3101   -1.0632 N   0  0  0  0  0  0  0  0  0  0  0  0
    2.6496    1.4006   -0.4690 C   0  0  0  0  0  0  0  0  0  0  0  0
    1.4549    1.1259    0.0959 N   0  0  0  0  0  0  0  0  0  0  0  0
   -1.8234    0.4365   -0.1961 C   0  0  0  0  0  0  0  0  0  0  0  0
   -2.9867    0.0785   -0.5201 O   0  0  0  0  0  0  0  0  0  0  0  0
   -1.3087    1.5223   -0.8477 O   0  0  0  0  0  0  0  0  0  0  0  0
   -2.2970   -1.8923    0.2699 H   0  0  0  0  0  0  0  0  0  0  0  0
   -2.9577   -1.0073    1.5370 H   0  0  0  0  0  0  0  0  0  0  0  0
   -0.8996    0.2376    1.7501 H   0  0  0  0  0  0  0  0  0  0  0  0
    0.4390   -1.8353    0.9175 H   0  0  0  0  0  0  0  0  0  0  0  0
   -0.2519   -1.5744   -0.6863 H   0  0  0  0  0  0  0  0  0  0  0  0
    2.3684   -1.6841   -1.2536 H   0  0  0  0  0  0  0  0  0  0  0  0
    3.1683    2.3486   -0.4624 H   0  0  0  0  0  0  0  0  0  0  0  0
    0.8736    1.7949    0.6291 H   0  0  0  0  0  0  0  0  0  0  0  0
   -1.8681    2.3559   -0.9670 H   0  0  0  0  0  0  0  0  0  0  0  0
  1  2  1  0
  2  3  1  0
  3  4  1  0
  4  5  2  0
  5  6  1  0
  6  7  2  0
  7  8  1  0
  2  9  1  0
  9 10  2  0
  9 11  1  0
  8  4  1  0
  1 12  1  0
  1 13  1  0
  2 14  1  1
  3 15  1  0
  3 16  1  0
  5 17  1  0
  7 18  1  0
  8 19  1  0
 11 20  1  0
M  END
$$$$

     RDKit          3D

 20 20  0  0  0  0  0  0  0  0999 V2000
    2.5363    0.9124    0.4959 N   0  0  0  0  0  0  0  0  0  0  0  0
    1.2392    0.2810    0.6099 C   0  0  1  0  0  0  0  0  0  0  0  0
    0.2172    1.0012   -0.2691 C   0  0  0  0  0  0  0  0  0  0  0  0
   -1.1250    0.3859   -0.1848 C   0  0  0  0  0  0  0  0  0  0  0  0
   -2.0997    0.7244    0.7575 C   0  0  0  0  0  0  0  0  0  0  0  0
   -3.1901   -0.0273    0.5234 N   0  0  0  0  0  0  0  0  0  0  0  0
   -2.9481   -0.8227   -0.5214 C   0  0  0  0  0  0  0  0  0  0  0  0
   -1.6946   -0.5590   -0.9369 N   0  0  0  0  0  0  0  0  0  0  0  0
    1.3552   -1.1121    0.1414 C   0  0  0  0  0  0  0  0  0  0  0  0
    0.4257   -1.9596    0.1715 O   0  0  0  0  0  0  0  0  0  0  0  0
    2.5653   -1.5447   -0.3742 O   0  0  0  0  0  0  0  0  0  0  0  0
    2.9541    1.1294    1.4199 H   0  0  0  0  0  0  0  0  0  0  0  0
    2.5530    1.6743   -0.1856 H   0  0  0  0  0  0  0  0  0  0  0  0
    0.8939    0.3158    1.6790 H   0  0  0  0  0  0  0  0  0  0  0  0
    0.1008    2.0664    0.0725 H   0  0  0  0  0  0  0  0  0  0  0  0
    0.5181    1.0048   -1.3179 H   0  0  0  0  0  0  0  0  0  0  0  0
   -1.9626    1.4786    1.5388 H   0  0  0  0  0  0  0  0  0  0  0  0
   -3.6651   -1.5283   -0.9162 H   0  0  0  0  0  0  0  0  0  0  0  0
   -1.2697   -1.0431   -1.7394 H   0  0  0  0  0  0  0  0  0  0  0  0
    2.5960   -2.3777   -0.9641 H   0  0  0  0  0  0  0  0  0  0  0  0
  1  2  1  0
  2  3  1  0
  3  4  1  0
  4  5  2  0
  5  6  1  0
  6  7  2  0
  7  8  1  0
  2  9  1  0
  9 10  2  0
  9 11  1  0
  8  4  1  0
  1 12  1  0
  1 13  1  0
  2 14  1  1
  3 15  1  0
  3 16  1  0
  5 17  1  0
  7 18  1  0
  8 19  1  0
 11 20  1  0
M  END
$$$$

     RDKit          3D

 20 20  0  0  0  0  0  0  0  0999 V2000
    1.0293    0.4865    1.3020 N   0  0  0  0  0  0  0  0  0  0  0  0
    1.0033   -0.4965    0.2502 C   0  0  1  0  0  0  0  0  0  0  0  0
    0.2177   -0.0440   -0.9574 C   0  0  0  0  0  0  0  0  0  0  0  0
   -1.1991    0.2497   -0.6366 C   0  0  0  0  0  0  0  0  0  0  0  0
   -1.7155    1.4662   -0.2386 C   0  0  0  0  0  0  0  0  0  0  0  0
   -3.0513    1.3375   -0.0389 N   0  0  0  0  0  0  0  0  0  0  0  0
   -3.3797    0.0553   -0.3066 C   0  0  0  0  0  0  0  0  0  0  0  0
   -2.2429   -0.5884   -0.6674 N   0  0  0  0  0  0  0  0  0  0  0  0
    2.3960   -0.7413   -0.1978 C   0  0  0  0  0  0  0  0  0  0  0  0
    2.5651   -1.5772   -1.1175 O   0  0  0  0  0  0  0  0  0  0  0  0
    3.4985   -0.1106    0.3327 O   0  0  0  0  0  0  0  0  0  0  0  0
    1.9910    0.8223    1.4861 H   0  0  0  0  0  0  0  0  0  0  0  0
    0.5259    0.1745    2.1600 H   0  0  0  0  0  0  0  0  0  0  0  0
    0.6204   -1.4443    0.6624 H   0  0  0  0  0  0  0  0  0  0  0  0
    0.3086   -0.8651   -1.7131 H   0  0  0  0  0  0  0  0  0  0  0  0
    0.7413    0.8287   -1.4025 H   0  0  0  0  0  0  0  0  0  0  0  0
   -1.1323    2.3775   -0.1091 H   0  0  0  0  0  0  0  0  0  0  0  0
   -4.3655   -0.3919   -0.2485 H   0  0  0  0  0  0  0  0  0  0  0  0
   -2.1696   -1.5959   -0.9354 H   0  0  0  0  0  0  0  0  0  0  0  0
    4.3588    0.0570   -0.2071 H   0  0  0  0  0  0  0  0  0  0  0  0
  1  2  1  0
  2  3  1  0
  3  4  1  0
  4  5  2  0
  5  6  1  0
  6  7  2  0
  7  8  1  0
  2  9  1  0
  9 10  2  0
  9 11  1  0
  8  4  1  0
  1 12  1  0
  1 13  1  0
  2 14  1  1
  3 15  1  0
  3 16  1  0
  5 17  1  0
  7 18  1  0
  8 19  1  0
 11 20  1  0
M  END
$$$$

     RDKit          3D

 20 20  0  0  0  0  0  0  0  0999 V2000
   -0.9688   -0.1156   -1.3756 N   0  0  0  0  0  0  0  0  0  0  0  0
   -1.1968   -0.1308    0.0421 C   0  0  1  0  0  0  0  0  0  0  0  0
   -0.0239    0.5346    0.7527 C   0  0  0  0  0  0  0  0  0  0  0  0
    1.2441   -0.1678    0.4759 C   0  0  0  0  0  0  0  0  0  0  0  0
    1.8070   -1.2073    1.1840 C   0  0  0  0  0  0  0  0  0  0  0  0
    2.9684   -1.5516    0.5889 N   0  0  0  0  0  0  0  0  0  0  0  0
    3.1552   -0.7551   -0.4797 C   0  0  0  0  0  0  0  0  0  0  0  0
    2.1048    0.0848   -0.5451 N   0  0  0  0  0  0  0  0  0  0  0  0
   -2.4594    0.5272    0.4324 C   0  0  0  0  0  0  0  0  0  0  0  0
   -2.7407    0.5604    1.6579 O   0  0  0  0  0  0  0  0  0  0  0  0
   -3.3373    1.1023   -0.4769 O   0  0  0  0  0  0  0  0  0  0  0  0
   -1.3405    0.7273   -1.8524 H   0  0  0  0  0  0  0  0  0  0  0  0
   -1.1858   -1.0017   -1.8584 H   0  0  0  0  0  0  0  0  0  0  0  0
   -1.2636   -1.1902    0.3860 H   0  0  0  0  0  0  0  0  0  0  0  0
    0.0025    1.6020    0.4270 H   0  0  0  0  0  0  0  0  0  0  0  0
   -0.2408    0.5539    1.8443 H   0  0  0  0  0  0  0  0  0  0  0  0
    1.3593   -1.6602    2.0823 H   0  0  0  0  0  0  0  0  0  0  0  0
    3.9823   -0.7543   -1.1846 H   0  0  0  0  0  0  0  0  0  0  0  0
    1.9096    0.8479   -1.2505 H   0  0  0  0  0  0  0  0  0  0  0  0
   -3.7756    1.9945   -0.2118 H   0  0  0  0  0  0  0  0  0  0  0  0
  1  2  1  0
  2  3  1  0
  3  4  1  0
  4  5  2  0
  5  6  1  0
  6  7  2  0
  7  8  1  0
  2  9  1  0
  9 10  2  0
  9 11  1  0
  8  4  1  0
  1 12  1  0
  1 13  1  0
  2 14  1  1
  3 15  1  0
  3 16  1  0
  5 17  1  0
  7 18  1  0
  8 19  1  0
 11 20  1  0
M  END
$$$$

     RDKit          3D

 20 20  0  0  0  0  0  0  0  0999 V2000
    2.0302   -1.5927   -0.7760 N   0  0  0  0  0  0  0  0  0  0  0  0
    1.0579   -0.4702   -0.8330 C   0  0  1  0  0  0  0  0  0  0  0  0
   -0.0735   -0.8781    0.0173 C   0  0  0  0  0  0  0  0  0  0  0  0
   -1.2178    0.0027    0.1389 C   0  0  0  0  0  0  0  0  0  0  0  0
   -2.2531   -0.3050    1.0388 C   0  0  0  0  0  0  0  0  0  0  0  0
   -3.1809    0.6376    0.9438 N   0  0  0  0  0  0  0  0  0  0  0  0
   -2.8163    1.5340    0.0435 C   0  0  0  0  0  0  0  0  0  0  0  0
   -1.6089    1.1292   -0.4415 N   0  0  0  0  0  0  0  0  0  0  0  0
    1.8426    0.6768   -0.2558 C   0  0  0  0  0  0  0  0  0  0  0  0
    1.3537    1.8017   -0.1283 O   0  0  0  0  0  0  0  0  0  0  0  0
    3.1765    0.5017    0.1626 O   0  0  0  0  0  0  0  0  0  0  0  0
    1.5333   -2.4965   -0.7473 H   0  0  0  0  0  0  0  0  0  0  0  0
    2.5630   -1.5282    0.1369 H   0  0  0  0  0  0  0  0  0  0  0  0
    0.8612   -0.2488   -1.8761 H   0  0  0  0  0  0  0  0  0  0  0  0
   -0.4477   -1.8650   -0.3707 H   0  0  0  0  0  0  0  0  0  0  0  0
    0.2997   -1.0966    1.0463 H   0  0  0  0  0  0  0  0  0  0  0  0
   -2.3278   -1.1495    1.7122 H   0  0  0  0  0  0  0  0  0  0  0  0
   -3.3852    2.4048   -0.2313 H   0  0  0  0  0  0  0  0  0  0  0  0
   -1.0875    1.6312   -1.1664 H   0  0  0  0  0  0  0  0  0  0  0  0
    3.6805    1.3111    0.5463 H   0  0  0  0  0  0  0  0  0  0  0  0
  1  2  1  0
  2  3  1  0
  3  4  1  0
  4  5  2  0
  5  6  1  0
  6  7  2  0
  7  8  1  0
  2  9  1  0
  9 10  2  0
  9 11  1  0
  8  4  1  0
  1 12  1  0
  1 13  1  0
  2 14  1  6
  3 15  1  0
  3 16  1  0
  5 17  1  0
  7 18  1  0
  8 19  1  0
 11 20  1  0
M  END
$$$$

     RDKit          3D

 20 20  0  0  0  0  0  0  0  0999 V2000
    1.9764   -1.3685   -1.1764 N   0  0  0  0  0  0  0  0  0  0  0  0
    1.1193   -0.2856   -0.6884 C   0  0  1  0  0  0  0  0  0  0  0  0
   -0.2377   -0.8543   -0.3882 C   0  0  0  0  0  0  0  0  0  0  0  0
   -1.2458    0.1219    0.0469 C   0  0  0  0  0  0  0  0  0  0  0  0
   -1.1850    1.4745   -0.0646 C   0  0  0  0  0  0  0  0  0  0  0  0
   -2.3177    1.9828    0.4935 N   0  0  0  0  0  0  0  0  0  0  0  0
   -3.0665    0.9634    0.9412 C   0  0  0  0  0  0  0  0  0  0  0  0
   -2.4220   -0.1607    0.6728 N   0  0  0  0  0  0  0  0  0  0  0  0
    1.6934    0.2536    0.5707 C   0  0  0  0  0  0  0  0  0  0  0  0
    1.1708    1.1103    1.2895 O   0  0  0  0  0  0  0  0  0  0  0  0
    2.9319   -0.2397    0.9944 O   0  0  0  0  0  0  0  0  0  0  0  0
    2.7152   -1.6111   -0.4931 H   0  0  0  0  0  0  0  0  0  0  0  0
    2.2900   -1.2306   -2.1397 H   0  0  0  0  0  0  0  0  0  0  0  0
    1.0688    0.4888   -1.4465 H   0  0  0  0  0  0  0  0  0  0  0  0
   -0.1602   -1.6044    0.4561 H   0  0  0  0  0  0  0  0  0  0  0  0
   -0.6447   -1.4235   -1.2553 H   0  0  0  0  0  0  0  0  0  0  0  0
   -0.4312    2.1058   -0.5143 H   0  0  0  0  0  0  0  0  0  0  0  0
   -4.0236    1.0669    1.4314 H   0  0  0  0  0  0  0  0  0  0  0  0
   -2.7299   -1.1264    0.8886 H   0  0  0  0  0  0  0  0  0  0  0  0
    3.4985    0.3368    1.6046 H   0  0  0  0  0  0  0  0  0  0  0  0
  1  2  1  0
  2  3  1  0
  3  4  1  0
  4  5  2  0
  5  6  1  0
  6  7  2  0
  7  8  1  0
  2  9  1  0
  9 10  2  0
  9 11  1  0
  8  4  1  0
  1 12  1  0
  1 13  1  0
  2 14  1  6
  3 15  1  0
  3 16  1  0
  5 17  1  0
  7 18  1  0
  8 19  1  0
 11 20  1  0
M  END
$$$$

     RDKit          3D

 20 20  0  0  0  0  0  0  0  0999 V2000
   -2.3562   -1.5696    0.0446 N   0  0  0  0  0  0  0  0  0  0  0  0
   -1.2660   -0.6098    0.2663 C   0  0  1  0  0  0  0  0  0  0  0  0
   -0.0233   -1.0786   -0.5034 C   0  0  0  0  0  0  0  0  0  0  0  0
    1.1175   -0.1483   -0.3188 C   0  0  0  0  0  0  0  0  0  0  0  0
    1.4874    0.9603   -1.0640 C   0  0  0  0  0  0  0  0  0  0  0  0
    2.5942    1.4835   -0.5064 N   0  0  0  0  0  0  0  0  0  0  0  0
    2.9451    0.7538    0.5640 C   0  0  0  0  0  0  0  0  0  0  0  0
    2.0399   -0.2322    0.6647 N   0  0  0  0  0  0  0  0  0  0  0  0
   -1.6737    0.7536   -0.0765 C   0  0  0  0  0  0  0  0  0  0  0  0
   -2.8315    0.9749   -0.5299 O   0  0  0  0  0  0  0  0  0  0  0  0
   -0.8482    1.8552    0.0677 O   0  0  0  0  0  0  0  0  0  0  0  0
   -3.2211   -1.0467   -0.1190 H   0  0  0  0  0  0  0  0  0  0  0  0
   -2.4591   -2.2214    0.8532 H   0  0  0  0  0  0  0  0  0  0  0  0
   -1.0299   -0.6644    1.3466 H   0  0  0  0  0  0  0  0  0  0  0  0
    0.2691   -2.0826   -0.1435 H   0  0  0  0  0  0  0  0  0  0  0  0
   -0.3140   -1.1527   -1.5749 H   0  0  0  0  0  0  0  0  0  0  0  0
    0.9503    1.3143   -1.9411 H   0  0  0  0  0  0  0  0  0  0  0  0
    3.7915    0.9281    1.2157 H   0  0  0  0  0  0  0  0  0  0  0  0
    2.0175   -0.9870    1.3960 H   0  0  0  0  0  0  0  0  0  0  0  0
   -1.1896    2.7696    0.3586 H   0  0  0  0  0  0  0  0  0  0  0  0
  1  2  1  0
  2  3  1  0
  3  4  1  0
  4  5  2  0
  5  6  1  0
  6  7  2  0
  7  8  1  0
  2  9  1  0
  9 10  2  0
  9 11  1  0
  8  4  1  0
  1 12  1  0
  1 13  1  0
  2 14  1  1
  3 15  1  0
  3 16  1  0
  5 17  1  0
  7 18  1  0
  8 19  1  0
 11 20  1  0
M  END
$$$$

     RDKit          3D

 20 20  0  0  0  0  0  0  0  0999 V2000
   -2.4540   -1.2360    0.6888 N   0  0  0  0  0  0  0  0  0  0  0  0
   -1.2430   -0.4331    0.6540 C   0  0  1  0  0  0  0  0  0  0  0  0
   -0.2818   -0.9646   -0.3753 C   0  0  0  0  0  0  0  0  0  0  0  0
    0.9734   -0.2103   -0.4840 C   0  0  0  0  0  0  0  0  0  0  0  0
    1.2486    0.8544   -1.3301 C   0  0  0  0  0  0  0  0  0  0  0  0
    2.4966    1.2500   -1.1046 N   0  0  0  0  0  0  0  0  0  0  0  0
    3.0080    0.4674   -0.1467 C   0  0  0  0  0  0  0  0  0  0  0  0
    2.0960   -0.4306    0.2464 N   0  0  0  0  0  0  0  0  0  0  0  0
   -1.5935    0.9586    0.3118 C   0  0  0  0  0  0  0  0  0  0  0  0
   -2.7884    1.2321    0.0423 O   0  0  0  0  0  0  0  0  0  0  0  0
   -0.6900    1.9982    0.2666 O   0  0  0  0  0  0  0  0  0  0  0  0
   -2.3869   -2.0771    0.0658 H   0  0  0  0  0  0  0  0  0  0  0  0
   -2.6866   -1.5626    1.6472 H   0  0  0  0  0  0  0  0  0  0  0  0
   -0.7723   -0.4218    1.6743 H   0  0  0  0  0  0  0  0  0  0  0  0
   -0.7414   -1.0267   -1.3788 H   0  0  0  0  0  0  0  0  0  0  0  0
   -0.0004   -2.0241   -0.1188 H   0  0  0  0  0  0  0  0  0  0  0  0
    0.5254    1.2670   -2.0552 H   0  0  0  0  0  0  0  0  0  0  0  0
    4.0299    0.5475    0.2612 H   0  0  0  0  0  0  0  0  0  0  0  0
    2.2159   -1.1654    0.9761 H   0  0  0  0  0  0  0  0  0  0  0  0
   -0.9554    2.9770    0.1590 H   0  0  0  0  0  0  0  0  0  0  0  0
  1  2  1  0
  2  3  1  0
  3  4  1  0
  4  5  2  0
  5  6  1  0
  6  7  2  0
  7  8  1  0
  2  9  1  0
  9 10  2  0
  9 11  1  0
  8  4  1  0
  1 12  1  0
  1 13  1  0
  2 14  1  1
  3 15  1  0
  3 16  1  0
  5 17  1  0
  7 18  1  0
  8 19  1  0
 11 20  1  0
M  END
$$$$

     RDKit          3D

 20 20  0  0  0  0  0  0  0  0999 V2000
    2.1633    1.6066    0.1517 N   0  0  0  0  0  0  0  0  0  0  0  0
    1.0720    0.7105    0.5171 C   0  0  1  0  0  0  0  0  0  0  0  0
    0.0730    0.7627   -0.6150 C   0  0  0  0  0  0  0  0  0  0  0  0
   -1.1045   -0.0910   -0.4135 C   0  0  0  0  0  0  0  0  0  0  0  0
   -1.2402   -1.3977   -0.8058 C   0  0  0  0  0  0  0  0  0  0  0  0
   -2.4821   -1.7846   -0.4148 N   0  0  0  0  0  0  0  0  0  0  0  0
   -3.0838   -0.7693    0.1884 C   0  0  0  0  0  0  0  0  0  0  0  0
   -2.2600    0.2686    0.1979 N   0  0  0  0  0  0  0  0  0  0  0  0
    1.5795   -0.6583    0.7096 C   0  0  0  0  0  0  0  0  0  0  0  0
    0.8054   -1.5908    1.0448 O   0  0  0  0  0  0  0  0  0  0  0  0
    2.9218   -1.0018    0.5366 O   0  0  0  0  0  0  0  0  0  0  0  0
    1.9014    2.5814    0.3752 H   0  0  0  0  0  0  0  0  0  0  0  0
    2.4653    1.4460   -0.8185 H   0  0  0  0  0  0  0  0  0  0  0  0
    0.6583    1.0880    1.4562 H   0  0  0  0  0  0  0  0  0  0  0  0
    0.5389    0.4956   -1.5708 H   0  0  0  0  0  0  0  0  0  0  0  0
   -0.2470    1.8273   -0.7098 H   0  0  0  0  0  0  0  0  0  0  0  0
   -0.5137   -2.0066   -1.3232 H   0  0  0  0  0  0  0  0  0  0  0  0
   -4.0788   -0.7599    0.6116 H   0  0  0  0  0  0  0  0  0  0  0  0
   -2.4490    1.1994    0.5979 H   0  0  0  0  0  0  0  0  0  0  0  0
    3.2805   -1.9260    0.8053 H   0  0  0  0  0  0  0  0  0  0  0  0
  1  2  1  0
  2  3  1  0
  3  4  1  0
  4  5  2  0
  5  6  1  0
  6  7  2  0
  7  8  1  0
  2  9  1  0
  9 10  2  0
  9 11  1  0
  8  4  1  0
  1 12  1  0
  1 13  1  0
  2 14  1  1
  3 15  1  0
  3 16  1  0
  5 17  1  0
  7 18  1  0
  8 19  1  0
 11 20  1  0
M  END
$$$$

     RDKit          3D

 20 20  0  0  0  0  0  0  0  0999 V2000
   -2.0856   -1.8837    0.1144 N   0  0  0  0  0  0  0  0  0  0  0  0
   -1.1331   -0.8113    0.3099 C   0  0  1  0  0  0  0  0  0  0  0  0
    0.0834   -0.9766   -0.5751 C   0  0  0  0  0  0  0  0  0  0  0  0
    1.0595    0.1175   -0.3801 C   0  0  0  0  0  0  0  0  0  0  0  0
    1.1941    1.3298   -1.0300 C   0  0  0  0  0  0  0  0  0  0  0  0
    2.2528    1.9778   -0.4675 N   0  0  0  0  0  0  0  0  0  0  0  0
    2.7678    1.2183    0.4922 C   0  0  0  0  0  0  0  0  0  0  0  0
    2.0406    0.1033    0.5335 N   0  0  0  0  0  0  0  0  0  0  0  0
   -1.8551    0.4576    0.0670 C   0  0  0  0  0  0  0  0  0  0  0  0
   -3.0627    0.4692   -0.2999 O   0  0  0  0  0  0  0  0  0  0  0  0
   -1.2206    1.6831    0.2376 O   0  0  0  0  0  0  0  0  0  0  0  0
   -2.5719   -2.1784    0.9696 H   0  0  0  0  0  0  0  0  0  0  0  0
   -1.7548   -2.6292   -0.5035 H   0  0  0  0  0  0  0  0  0  0  0  0
   -0.7833   -0.8023    1.3726 H   0  0  0  0  0  0  0  0  0  0  0  0
   -0.2197   -1.0799   -1.6418 H   0  0  0  0  0  0  0  0  0  0  0  0
    0.5850   -1.9292   -0.2771 H   0  0  0  0  0  0  0  0  0  0  0  0
    0.5634    1.6739   -1.8346 H   0  0  0  0  0  0  0  0  0  0  0  0
    3.6165    1.4547    1.1238 H   0  0  0  0  0  0  0  0  0  0  0  0
    2.2495   -0.6771    1.2242 H   0  0  0  0  0  0  0  0  0  0  0  0
   -1.7260    2.4826    0.5645 H   0  0  0  0  0  0  0  0  0  0  0  0
  1  2  1  0
  2  3  1  0
  3  4  1  0
  4  5  2  0
  5  6  1  0
  6  7  2  0
  7  8  1  0
  2  9  1  0
  9 10  2  0
  9 11  1  0
  8  4  1  0
  1 12  1  0
  1 13  1  0
  2 14  1  1
  3 15  1  0
  3 16  1  0
  5 17  1  0
  7 18  1  0
  8 19  1  0
 11 20  1  0
M  END
$$$$

     RDKit          3D

 20 20  0  0  0  0  0  0  0  0999 V2000
   -2.6480   -0.1747    0.5679 N   0  0  0  0  0  0  0  0  0  0  0  0
   -1.2535    0.2153    0.4721 C   0  0  1  0  0  0  0  0  0  0  0  0
   -0.3905   -0.9783    0.0837 C   0  0  0  0  0  0  0  0  0  0  0  0
    1.0356   -0.6516   -0.0301 C   0  0  0  0  0  0  0  0  0  0  0  0
    1.7518   -0.2260   -1.1285 C   0  0  0  0  0  0  0  0  0  0  0  0
    3.0089   -0.0584   -0.7498 N   0  0  0  0  0  0  0  0  0  0  0  0
    3.1344   -0.3617    0.5622 C   0  0  0  0  0  0  0  0  0  0  0  0
    1.9286   -0.7240    1.0012 N   0  0  0  0  0  0  0  0  0  0  0  0
   -1.0885    1.3582   -0.4470 C   0  0  0  0  0  0  0  0  0  0  0  0
    0.0306    1.8663   -0.6606 O   0  0  0  0  0  0  0  0  0  0  0  0
   -2.2330    1.8658   -1.0823 O   0  0  0  0  0  0  0  0  0  0  0  0
   -2.7637   -1.1886    0.7962 H   0  0  0  0  0  0  0  0  0  0  0  0
   -3.1206    0.1143   -0.3080 H   0  0  0  0  0  0  0  0  0  0  0  0
   -0.9226    0.5626    1.4855 H   0  0  0  0  0  0  0  0  0  0  0  0
   -0.5972   -1.8014    0.7892 H   0  0  0  0  0  0  0  0  0  0  0  0
   -0.7700   -1.3029   -0.9205 H   0  0  0  0  0  0  0  0  0  0  0  0
    1.3539   -0.0597   -2.1216 H   0  0  0  0  0  0  0  0  0  0  0  0
    4.0882   -0.2890    1.0666 H   0  0  0  0  0  0  0  0  0  0  0  0
    1.7218   -1.0123    1.9770 H   0  0  0  0  0  0  0  0  0  0  0  0
   -2.2661    2.8460   -1.3532 H   0  0  0  0  0  0  0  0  0  0  0  0
  1  2  1  0
  2  3  1  0
  3  4  1  0
  4  5  2  0
  5  6  1  0
  6  7  2  0
  7  8  1  0
  2  9  1  0
  9 10  2  0
  9 11  1  0
  8  4  1  0
  1 12  1  0
  1 13  1  0
  2 14  1  1
  3 15  1  0
  3 16  1  0
  5 17  1  0
  7 18  1  0
  8 19  1  0
 11 20  1  0
M  END
$$$$

     RDKit          3D

 20 20  0  0  0  0  0  0  0  0999 V2000
   -1.2898   -0.0665   -1.4830 N   0  0  0  0  0  0  0  0  0  0  0  0
   -1.3593   -0.5895   -0.1479 C   0  0  1  0  0  0  0  0  0  0  0  0
   -0.0671   -1.2396    0.2018 C   0  0  0  0  0  0  0  0  0  0  0  0
    1.1094   -0.3746    0.1632 C   0  0  0  0  0  0  0  0  0  0  0  0
    2.3834   -0.8259    0.4661 C   0  0  0  0  0  0  0  0  0  0  0  0
    3.2293    0.1887    0.3399 N   0  0  0  0  0  0  0  0  0  0  0  0
    2.5651    1.2847   -0.0325 C   0  0  0  0  0  0  0  0  0  0  0  0
    1.2690    0.9238   -0.1364 N   0  0  0  0  0  0  0  0  0  0  0  0
   -1.8205    0.4327    0.7811 C   0  0  0  0  0  0  0  0  0  0  0  0
   -1.9429    0.2027    1.9930 O   0  0  0  0  0  0  0  0  0  0  0  0
   -2.1327    1.6969    0.3063 O   0  0  0  0  0  0  0  0  0  0  0  0
   -0.7983   -0.7621   -2.0866 H   0  0  0  0  0  0  0  0  0  0  0  0
   -2.2367    0.0699   -1.9194 H   0  0  0  0  0  0  0  0  0  0  0  0
   -2.1236   -1.4267   -0.1750 H   0  0  0  0  0  0  0  0  0  0  0  0
    0.0360   -2.1616   -0.4248 H   0  0  0  0  0  0  0  0  0  0  0  0
   -0.1549   -1.6295    1.2581 H   0  0  0  0  0  0  0  0  0  0  0  0
    2.6664   -1.8414    0.7614 H   0  0  0  0  0  0  0  0  0  0  0  0
    3.0023    2.2715   -0.2129 H   0  0  0  0  0  0  0  0  0  0  0  0
    0.5126    1.5584   -0.4080 H   0  0  0  0  0  0  0  0  0  0  0  0
   -2.8476    2.2882    0.7556 H   0  0  0  0  0  0  0  0  0  0  0  0
  1  2  1  0
  2  3  1  0
  3  4  1  0
  4  5  2  0
  5  6  1  0
  6  7  2  0
  7  8  1  0
  2  9  1  0
  9 10  2  0
  9 11  1  0
  8  4  1  0
  1 12  1  0
  1 13  1  0
  2 14  1  6
  3 15  1  0
  3 16  1  0
  5 17  1  0
  7 18  1  0
  8 19  1  0
 11 20  1  0
M  END
$$$$

     RDKit          3D

 20 20  0  0  0  0  0  0  0  0999 V2000
   -2.3785   -0.5673   -1.3965 N   0  0  0  0  0  0  0  0  0  0  0  0
   -1.3629   -0.5158   -0.3110 C   0  0  1  0  0  0  0  0  0  0  0  0
   -0.0594   -0.1593   -0.9437 C   0  0  0  0  0  0  0  0  0  0  0  0
    1.0928   -0.1120   -0.0328 C   0  0  0  0  0  0  0  0  0  0  0  0
    1.2137   -0.5092    1.2614 C   0  0  0  0  0  0  0  0  0  0  0  0
    2.4638   -0.2404    1.6910 N   0  0  0  0  0  0  0  0  0  0  0  0
    3.1270    0.3236    0.6688 C   0  0  0  0  0  0  0  0  0  0  0  0
    2.3036    0.4079   -0.3884 N   0  0  0  0  0  0  0  0  0  0  0  0
   -1.7919    0.6482    0.5098 C   0  0  0  0  0  0  0  0  0  0  0  0
   -2.8559    1.2432    0.2149 O   0  0  0  0  0  0  0  0  0  0  0  0
   -1.0923    1.1250    1.5847 O   0  0  0  0  0  0  0  0  0  0  0  0
   -1.9031   -0.7540   -2.3092 H   0  0  0  0  0  0  0  0  0  0  0  0
   -3.0648   -1.2955   -1.1362 H   0  0  0  0  0  0  0  0  0  0  0  0
   -1.3680   -1.4668    0.2075 H   0  0  0  0  0  0  0  0  0  0  0  0
   -0.1503    0.7920   -1.5468 H   0  0  0  0  0  0  0  0  0  0  0  0
    0.1909   -0.9304   -1.7232 H   0  0  0  0  0  0  0  0  0  0  0  0
    0.4642   -0.9795    1.8668 H   0  0  0  0  0  0  0  0  0  0  0  0
    4.1653    0.6550    0.7043 H   0  0  0  0  0  0  0  0  0  0  0  0
    2.5310    0.7973   -1.3209 H   0  0  0  0  0  0  0  0  0  0  0  0
   -1.5251    1.5380    2.3995 H   0  0  0  0  0  0  0  0  0  0  0  0
  1  2  1  0
  2  3  1  0
  3  4  1  0
  4  5  2  0
  5  6  1  0
  6  7  2  0
  7  8  1  0
  2  9  1  0
  9 10  2  0
  9 11  1  0
  8  4  1  0
  1 12  1  0
  1 13  1  0
  2 14  1  1
  3 15  1  0
  3 16  1  0
  5 17  1  0
  7 18  1  0
  8 19  1  0
 11 20  1  0
M  END
$$$$

     RDKit          3D

 20 20  0  0  0  0  0  0  0  0999 V2000
   -1.3489    0.8272   -1.2063 N   0  0  0  0  0  0  0  0  0  0  0  0
   -1.4318   -0.2713   -0.2846 C   0  0  1  0  0  0  0  0  0  0  0  0
   -0.2532   -1.1782   -0.3968 C   0  0  0  0  0  0  0  0  0  0  0  0
    1.0375   -0.5405   -0.1298 C   0  0  0  0  0  0  0  0  0  0  0  0
    2.2410   -1.2216   -0.1839 C   0  0  0  0  0  0  0  0  0  0  0  0
    3.2232   -0.3605    0.1081 N   0  0  0  0  0  0  0  0  0  0  0  0
    2.7088    0.8362    0.3462 C   0  0  0  0  0  0  0  0  0  0  0  0
    1.3685    0.7187    0.1986 N   0  0  0  0  0  0  0  0  0  0  0  0
   -1.7288    0.2060    1.0553 C   0  0  0  0  0  0  0  0  0  0  0  0
   -1.8404   -0.5868    2.0182 O   0  0  0  0  0  0  0  0  0  0  0  0
   -1.8929    1.5588    1.2810 O   0  0  0  0  0  0  0  0  0  0  0  0
   -0.7372    0.6185   -2.0381 H   0  0  0  0  0  0  0  0  0  0  0  0
   -2.2872    1.0751   -1.6159 H   0  0  0  0  0  0  0  0  0  0  0  0
   -2.3258   -0.8797   -0.6185 H   0  0  0  0  0  0  0  0  0  0  0  0
   -0.2743   -1.6391   -1.4138 H   0  0  0  0  0  0  0  0  0  0  0  0
   -0.3717   -2.0279    0.3153 H   0  0  0  0  0  0  0  0  0  0  0  0
    2.3731   -2.2743   -0.4220 H   0  0  0  0  0  0  0  0  0  0  0  0
    3.2616    1.7181    0.6048 H   0  0  0  0  0  0  0  0  0  0  0  0
    0.6785    1.4775    0.3168 H   0  0  0  0  0  0  0  0  0  0  0  0
   -2.4000    1.9440    2.0652 H   0  0  0  0  0  0  0  0  0  0  0  0
  1  2  1  0
  2  3  1  0
  3  4  1  0
  4  5  2  0
  5  6  1  0
  6  7  2  0
  7  8  1  0
  2  9  1  0
  9 10  2  0
  9 11  1  0
  8  4  1  0
  1 12  1  0
  1 13  1  0
  2 14  1  6
  3 15  1  0
  3 16  1  0
  5 17  1  0
  7 18  1  0
  8 19  1  0
 11 20  1  0
M  END
$$$$

     RDKit          3D

 20 20  0  0  0  0  0  0  0  0999 V2000
   -1.0176   -0.8969   -1.1337 N   0  0  0  0  0  0  0  0  0  0  0  0
   -1.1701   -0.4114    0.2164 C   0  0  1  0  0  0  0  0  0  0  0  0
   -0.2158    0.7439    0.5010 C   0  0  0  0  0  0  0  0  0  0  0  0
    1.1932    0.3526    0.3378 C   0  0  0  0  0  0  0  0  0  0  0  0
    2.0430   -0.1639    1.2925 C   0  0  0  0  0  0  0  0  0  0  0  0
    3.2469   -0.3818    0.7156 N   0  0  0  0  0  0  0  0  0  0  0  0
    3.1712   -0.0164   -0.5687 C   0  0  0  0  0  0  0  0  0  0  0  0
    1.9211    0.4282   -0.7893 N   0  0  0  0  0  0  0  0  0  0  0  0
   -2.5340    0.1217    0.3717 C   0  0  0  0  0  0  0  0  0  0  0  0
   -2.9099    0.6037    1.4622 O   0  0  0  0  0  0  0  0  0  0  0  0
   -3.4097    0.0931   -0.6882 O   0  0  0  0  0  0  0  0  0  0  0  0
   -1.5412   -1.7945   -1.2108 H   0  0  0  0  0  0  0  0  0  0  0  0
   -0.0221   -1.1095   -1.3751 H   0  0  0  0  0  0  0  0  0  0  0  0
   -0.9502   -1.2162    0.9572 H   0  0  0  0  0  0  0  0  0  0  0  0
   -0.5034    1.5544   -0.2129 H   0  0  0  0  0  0  0  0  0  0  0  0
   -0.4277    1.0399    1.5644 H   0  0  0  0  0  0  0  0  0  0  0  0
    1.8021   -0.3682    2.3384 H   0  0  0  0  0  0  0  0  0  0  0  0
    3.9724   -0.0688   -1.3002 H   0  0  0  0  0  0  0  0  0  0  0  0
    1.5722    0.7838   -1.7203 H   0  0  0  0  0  0  0  0  0  0  0  0
   -4.2203    0.7062   -0.7581 H   0  0  0  0  0  0  0  0  0  0  0  0
  1  2  1  0
  2  3  1  0
  3  4  1  0
  4  5  2  0
  5  6  1  0
  6  7  2  0
  7  8  1  0
  2  9  1  0
  9 10  2  0
  9 11  1  0
  8  4  1  0
  1 12  1  0
  1 13  1  0
  2 14  1  1
  3 15  1  0
  3 16  1  0
  5 17  1  0
  7 18  1  0
  8 19  1  0
 11 20  1  0
M  END
$$$$

     RDKit          3D

 20 20  0  0  0  0  0  0  0  0999 V2000
   -0.8084    0.4792   -1.5773 N   0  0  0  0  0  0  0  0  0  0  0  0
   -1.1976   -0.2176   -0.3805 C   0  0  1  0  0  0  0  0  0  0  0  0
   -0.2281    0.1465    0.7320 C   0  0  0  0  0  0  0  0  0  0  0  0
    1.1596   -0.2426    0.3670 C   0  0  0  0  0  0  0  0  0  0  0  0
    1.7812   -1.4489    0.6218 C   0  0  0  0  0  0  0  0  0  0  0  0
    3.0455   -1.4345    0.1398 N   0  0  0  0  0  0  0  0  0  0  0  0
    3.2223   -0.2173   -0.4202 C   0  0  0  0  0  0  0  0  0  0  0  0
    2.0897    0.4971   -0.2832 N   0  0  0  0  0  0  0  0  0  0  0  0
   -2.5574    0.1938    0.0046 C   0  0  0  0  0  0  0  0  0  0  0  0
   -3.0738   -0.3100    1.0321 O   0  0  0  0  0  0  0  0  0  0  0  0
   -3.2649    1.1311   -0.7605 O   0  0  0  0  0  0  0  0  0  0  0  0
   -1.6422    0.8232   -2.0995 H   0  0  0  0  0  0  0  0  0  0  0  0
   -0.1288   -0.0268   -2.1665 H   0  0  0  0  0  0  0  0  0  0  0  0
   -1.1016   -1.3035   -0.5748 H   0  0  0  0  0  0  0  0  0  0  0  0
   -0.2749    1.2362    0.9451 H   0  0  0  0  0  0  0  0  0  0  0  0
   -0.5504   -0.3656    1.6765 H   0  0  0  0  0  0  0  0  0  0  0  0
    1.3373   -2.2917    1.1306 H   0  0  0  0  0  0  0  0  0  0  0  0
    4.1473    0.1203   -0.9055 H   0  0  0  0  0  0  0  0  0  0  0  0
    1.9694    1.4731   -0.6336 H   0  0  0  0  0  0  0  0  0  0  0  0
   -3.9242    1.7579   -0.2731 H   0  0  0  0  0  0  0  0  0  0  0  0
  1  2  1  0
  2  3  1  0
  3  4  1  0
  4  5  2  0
  5  6  1  0
  6  7  2  0
  7  8  1  0
  2  9  1  0
  9 10  2  0
  9 11  1  0
  8  4  1  0
  1 12  1  0
  1 13  1  0
  2 14  1  6
  3 15  1  0
  3 16  1  0
  5 17  1  0
  7 18  1  0
  8 19  1  0
 11 20  1  0
M  END
$$$$

     RDKit          3D

 20 20  0  0  0  0  0  0  0  0999 V2000
   -0.9497   -1.5133   -0.8460 N   0  0  0  0  0  0  0  0  0  0  0  0
   -1.0547   -0.5396    0.2052 C   0  0  1  0  0  0  0  0  0  0  0  0
   -0.2540    0.7039   -0.1242 C   0  0  0  0  0  0  0  0  0  0  0  0
    1.1679    0.4448   -0.3113 C   0  0  0  0  0  0  0  0  0  0  0  0
    1.7656    0.1273   -1.5075 C   0  0  0  0  0  0  0  0  0  0  0  0
    3.0706   -0.0405   -1.3038 N   0  0  0  0  0  0  0  0  0  0  0  0
    3.3005    0.1703    0.0204 C   0  0  0  0  0  0  0  0  0  0  0  0
    2.1306    0.4666    0.6191 N   0  0  0  0  0  0  0  0  0  0  0  0
   -2.4879   -0.0887    0.3236 C   0  0  0  0  0  0  0  0  0  0  0  0
   -3.3765   -0.5565   -0.4312 O   0  0  0  0  0  0  0  0  0  0  0  0
   -2.8720    0.8520    1.2639 O   0  0  0  0  0  0  0  0  0  0  0  0
   -1.7202   -1.4723   -1.5271 H   0  0  0  0  0  0  0  0  0  0  0  0
   -0.7720   -2.4785   -0.5243 H   0  0  0  0  0  0  0  0  0  0  0  0
   -0.7557   -0.9576    1.1912 H   0  0  0  0  0  0  0  0  0  0  0  0
   -0.7469    1.1480   -1.0333 H   0  0  0  0  0  0  0  0  0  0  0  0
   -0.4524    1.4280    0.7150 H   0  0  0  0  0  0  0  0  0  0  0  0
    1.2791    0.0209   -2.4892 H   0  0  0  0  0  0  0  0  0  0  0  0
    4.2921    0.0944    0.4514 H   0  0  0  0  0  0  0  0  0  0  0  0
    2.0643    0.6686    1.6457 H   0  0  0  0  0  0  0  0  0  0  0  0
   -3.6286    1.5223    1.0953 H   0  0  0  0  0  0  0  0  0  0  0  0
  1  2  1  0
  2  3  1  0
  3  4  1  0
  4  5  2  0
  5  6  1  0
  6  7  2  0
  7  8  1  0
  2  9  1  0
  9 10  2  0
  9 11  1  0
  8  4  1  0
  1 12  1  0
  1 13  1  0
  2 14  1  1
  3 15  1  0
  3 16  1  0
  5 17  1  0
  7 18  1  0
  8 19  1  0
 11 20  1  0
M  END
$$$$

     RDKit          3D

 20 20  0  0  0  0  0  0  0  0999 V2000
   -0.8926   -1.2497    0.2768 N   0  0  0  0  0  0  0  0  0  0  0  0
   -1.0722    0.1715    0.3607 C   0  0  1  0  0  0  0  0  0  0  0  0
   -0.1331    0.9393   -0.5552 C   0  0  0  0  0  0  0  0  0  0  0  0
    1.2707    0.6724   -0.2290 C   0  0  0  0  0  0  0  0  0  0  0  0
    2.0325    1.3792    0.6599 C   0  0  0  0  0  0  0  0  0  0  0  0
    3.2538    0.8067    0.6592 N   0  0  0  0  0  0  0  0  0  0  0  0
    3.2541   -0.2224   -0.2007 C   0  0  0  0  0  0  0  0  0  0  0  0
    2.0333   -0.3137   -0.7546 N   0  0  0  0  0  0  0  0  0  0  0  0
   -2.4732    0.5300    0.0793 C   0  0  0  0  0  0  0  0  0  0  0  0
   -2.8460    1.7418    0.1017 O   0  0  0  0  0  0  0  0  0  0  0  0
   -3.4343   -0.4176   -0.2176 O   0  0  0  0  0  0  0  0  0  0  0  0
   -1.0620   -1.6627    1.2369 H   0  0  0  0  0  0  0  0  0  0  0  0
   -1.6000   -1.6854   -0.3547 H   0  0  0  0  0  0  0  0  0  0  0  0
   -0.8499    0.5522    1.3992 H   0  0  0  0  0  0  0  0  0  0  0  0
   -0.3384    2.0127   -0.3883 H   0  0  0  0  0  0  0  0  0  0  0  0
   -0.3928    0.7203   -1.6077 H   0  0  0  0  0  0  0  0  0  0  0  0
    1.7358    2.2468    1.2688 H   0  0  0  0  0  0  0  0  0  0  0  0
    4.1123   -0.8692   -0.4054 H   0  0  0  0  0  0  0  0  0  0  0  0
    1.7811   -1.0420   -1.4620 H   0  0  0  0  0  0  0  0  0  0  0  0
   -4.3791   -0.3192    0.1326 H   0  0  0  0  0  0  0  0  0  0  0  0
  1  2  1  0
  2  3  1  0
  3  4  1  0
  4  5  2  0
  5  6  1  0
  6  7  2  0
  7  8  1  0
  2  9  1  0
  9 10  2  0
  9 11  1  0
  8  4  1  0
  1 12  1  0
  1 13  1  0
  2 14  1  1
  3 15  1  0
  3 16  1  0
  5 17  1  0
  7 18  1  0
  8 19  1  0
 11 20  1  0
M  END
$$$$

     RDKit          3D

 20 20  0  0  0  0  0  0  0  0999 V2000
   -1.3067   -1.0291   -1.1742 N   0  0  0  0  0  0  0  0  0  0  0  0
   -1.4895   -0.1782   -0.0348 C   0  0  1  0  0  0  0  0  0  0  0  0
   -0.5286   -0.6026    1.0509 C   0  0  0  0  0  0  0  0  0  0  0  0
    0.8423   -0.4695    0.5187 C   0  0  0  0  0  0  0  0  0  0  0  0
    1.5765   -1.4328   -0.1513 C   0  0  0  0  0  0  0  0  0  0  0  0
    2.7974   -0.9297   -0.4821 N   0  0  0  0  0  0  0  0  0  0  0  0
    2.8198    0.3336   -0.0215 C   0  0  0  0  0  0  0  0  0  0  0  0
    1.6413    0.6077    0.5807 N   0  0  0  0  0  0  0  0  0  0  0  0
   -1.2827    1.2536   -0.3739 C   0  0  0  0  0  0  0  0  0  0  0  0
   -0.9855    1.5638   -1.5524 O   0  0  0  0  0  0  0  0  0  0  0  0
   -1.4074    2.2400    0.5626 O   0  0  0  0  0  0  0  0  0  0  0  0
   -1.9849   -0.7450   -1.9133 H   0  0  0  0  0  0  0  0  0  0  0  0
   -1.4322   -2.0101   -0.8879 H   0  0  0  0  0  0  0  0  0  0  0  0
   -2.5089   -0.3223    0.3550 H   0  0  0  0  0  0  0  0  0  0  0  0
   -0.7688   -1.6637    1.3227 H   0  0  0  0  0  0  0  0  0  0  0  0
   -0.6630    0.0574    1.9221 H   0  0  0  0  0  0  0  0  0  0  0  0
    1.2092   -2.4280   -0.3659 H   0  0  0  0  0  0  0  0  0  0  0  0
    3.6561    1.0106   -0.1243 H   0  0  0  0  0  0  0  0  0  0  0  0
    1.4341    1.5375    1.0146 H   0  0  0  0  0  0  0  0  0  0  0  0
   -1.6185    3.2069    0.3501 H   0  0  0  0  0  0  0  0  0  0  0  0
  1  2  1  0
  2  3  1  0
  3  4  1  0
  4  5  2  0
  5  6  1  0
  6  7  2  0
  7  8  1  0
  2  9  1  0
  9 10  2  0
  9 11  1  0
  8  4  1  0
  1 12  1  0
  1 13  1  0
  2 14  1  1
  3 15  1  0
  3 16  1  0
  5 17  1  0
  7 18  1  0
  8 19  1  0
 11 20  1  0
M  END
$$$$

     RDKit          3D

 20 20  0  0  0  0  0  0  0  0999 V2000
   -1.2284    0.8541   -1.5353 N   0  0  0  0  0  0  0  0  0  0  0  0
   -1.3880   -0.2197   -0.5919 C   0  0  1  0  0  0  0  0  0  0  0  0
   -0.1939   -1.1161   -0.4847 C   0  0  0  0  0  0  0  0  0  0  0  0
    1.0333   -0.4470   -0.0638 C   0  0  0  0  0  0  0  0  0  0  0  0
    1.4218   -0.3050    1.2509 C   0  0  0  0  0  0  0  0  0  0  0  0
    2.5756    0.3455    1.2833 N   0  0  0  0  0  0  0  0  0  0  0  0
    2.9199    0.6145    0.0264 C   0  0  0  0  0  0  0  0  0  0  0  0
    1.9926    0.1390   -0.8004 N   0  0  0  0  0  0  0  0  0  0  0  0
   -1.7276    0.3371    0.7402 C   0  0  0  0  0  0  0  0  0  0  0  0
   -1.8345    1.5629    0.9107 O   0  0  0  0  0  0  0  0  0  0  0  0
   -1.9207   -0.5539    1.7838 O   0  0  0  0  0  0  0  0  0  0  0  0
   -2.1775    1.0755   -1.9229 H   0  0  0  0  0  0  0  0  0  0  0  0
   -0.9125    1.7545   -1.0777 H   0  0  0  0  0  0  0  0  0  0  0  0
   -2.2479   -0.8587   -0.8937 H   0  0  0  0  0  0  0  0  0  0  0  0
   -0.0536   -1.6670   -1.4540 H   0  0  0  0  0  0  0  0  0  0  0  0
   -0.4388   -1.9051    0.2551 H   0  0  0  0  0  0  0  0  0  0  0  0
    0.8696   -0.6692    2.1281 H   0  0  0  0  0  0  0  0  0  0  0  0
    3.8222    1.1425   -0.2736 H   0  0  0  0  0  0  0  0  0  0  0  0
    2.0095    0.2114   -1.8630 H   0  0  0  0  0  0  0  0  0  0  0  0
   -2.5210   -0.2954    2.5824 H   0  0  0  0  0  0  0  0  0  0  0  0
  1  2  1  0
  2  3  1  0
  3  4  1  0
  4  5  2  0
  5  6  1  0
  6  7  2  0
  7  8  1  0
  2  9  1  0
  9 10  2  0
  9 11  1  0
  8  4  1  0
  1 12  1  0
  1 13  1  0
  2 14  1  6
  3 15  1  0
  3 16  1  0
  5 17  1  0
  7 18  1  0
  8 19  1  0
 11 20  1  0
M  END
$$$$

     RDKit          3D

 20 20  0  0  0  0  0  0  0  0999 V2000
    0.8515    0.6564   -1.1313 N   0  0  0  0  0  0  0  0  0  0  0  0
    1.0977    0.2120    0.2182 C   0  0  1  0  0  0  0  0  0  0  0  0
    0.1011   -0.8545    0.6133 C   0  0  0  0  0  0  0  0  0  0  0  0
   -1.2533   -0.2557    0.5145 C   0  0  0  0  0  0  0  0  0  0  0  0
   -1.8827    0.3950    1.5523 C   0  0  0  0  0  0  0  0  0  0  0  0
   -3.0811    0.8148    1.1449 N   0  0  0  0  0  0  0  0  0  0  0  0
   -3.1868    0.4235   -0.1374 C   0  0  0  0  0  0  0  0  0  0  0  0
   -2.0908   -0.2257   -0.5364 N   0  0  0  0  0  0  0  0  0  0  0  0
    2.4868   -0.2168    0.3688 C   0  0  0  0  0  0  0  0  0  0  0  0
    2.9408   -0.6468    1.4605 O   0  0  0  0  0  0  0  0  0  0  0  0
    3.3538   -0.1604   -0.7033 O   0  0  0  0  0  0  0  0  0  0  0  0
    1.6063    1.3109   -1.4016 H   0  0  0  0  0  0  0  0  0  0  0  0
    0.7348   -0.1297   -1.7975 H   0  0  0  0  0  0  0  0  0  0  0  0
    0.9075    1.0808    0.8923 H   0  0  0  0  0  0  0  0  0  0  0  0
    0.2718   -1.1281    1.6726 H   0  0  0  0  0  0  0  0  0  0  0  0
    0.1950   -1.7697   -0.0047 H   0  0  0  0  0  0  0  0  0  0  0  0
   -1.4783    0.5537    2.5642 H   0  0  0  0  0  0  0  0  0  0  0  0
   -4.0613    0.6227   -0.7462 H   0  0  0  0  0  0  0  0  0  0  0  0
   -1.8705   -0.6435   -1.4528 H   0  0  0  0  0  0  0  0  0  0  0  0
    4.3577   -0.0389   -0.6136 H   0  0  0  0  0  0  0  0  0  0  0  0
  1  2  1  0
  2  3  1  0
  3  4  1  0
  4  5  2  0
  5  6  1  0
  6  7  2  0
  7  8  1  0
  2  9  1  0
  9 10  2  0
  9 11  1  0
  8  4  1  0
  1 12  1  0
  1 13  1  0
  2 14  1  1
  3 15  1  0
  3 16  1  0
  5 17  1  0
  7 18  1  0
  8 19  1  0
 11 20  1  0
M  END
$$$$

     RDKit          3D

 20 20  0  0  0  0  0  0  0  0999 V2000
   -0.9034    0.6815    1.5464 N   0  0  0  0  0  0  0  0  0  0  0  0
   -1.0089    0.5338    0.1086 C   0  0  1  0  0  0  0  0  0  0  0  0
   -0.3040   -0.7476   -0.2620 C   0  0  0  0  0  0  0  0  0  0  0  0
    1.1092   -0.6162    0.1704 C   0  0  0  0  0  0  0  0  0  0  0  0
    1.6077   -0.9800    1.4032 C   0  0  0  0  0  0  0  0  0  0  0  0
    2.9358   -0.7037    1.4068 N   0  0  0  0  0  0  0  0  0  0  0  0
    3.2712   -0.1800    0.2120 C   0  0  0  0  0  0  0  0  0  0  0  0
    2.1318   -0.1331   -0.5389 N   0  0  0  0  0  0  0  0  0  0  0  0
   -2.3979    0.5950   -0.3568 C   0  0  0  0  0  0  0  0  0  0  0  0
   -3.3176    0.7601    0.4821 O   0  0  0  0  0  0  0  0  0  0  0  0
   -2.7036    0.4734   -1.7027 O   0  0  0  0  0  0  0  0  0  0  0  0
   -1.0823    1.6679    1.8566 H   0  0  0  0  0  0  0  0  0  0  0  0
   -1.5811    0.0395    1.9992 H   0  0  0  0  0  0  0  0  0  0  0  0
   -0.4189    1.3644   -0.3376 H   0  0  0  0  0  0  0  0  0  0  0  0
   -0.3095   -0.9551   -1.3403 H   0  0  0  0  0  0  0  0  0  0  0  0
   -0.8141   -1.5911    0.2536 H   0  0  0  0  0  0  0  0  0  0  0  0
    1.0341   -1.4050    2.2066 H   0  0  0  0  0  0  0  0  0  0  0  0
    4.2516    0.1478   -0.1113 H   0  0  0  0  0  0  0  0  0  0  0  0
    2.0938    0.2299   -1.5161 H   0  0  0  0  0  0  0  0  0  0  0  0
   -3.5941    0.8182   -2.0907 H   0  0  0  0  0  0  0  0  0  0  0  0
  1  2  1  0
  2  3  1  0
  3  4  1  0
  4  5  2  0
  5  6  1  0
  6  7  2  0
  7  8  1  0
  2  9  1  0
  9 10  2  0
  9 11  1  0
  8  4  1  0
  1 12  1  0
  1 13  1  0
  2 14  1  6
  3 15  1  0
  3 16  1  0
  5 17  1  0
  7 18  1  0
  8 19  1  0
 11 20  1  0
M  END
$$$$

     RDKit          3D

 20 20  0  0  0  0  0  0  0  0999 V2000
   -2.6098   -0.6142   -0.4029 N   0  0  0  0  0  0  0  0  0  0  0  0
   -1.3600   -0.2977    0.2533 C   0  0  1  0  0  0  0  0  0  0  0  0
   -0.2544   -0.7316   -0.6657 C   0  0  0  0  0  0  0  0  0  0  0  0
    1.1042   -0.4693   -0.1261 C   0  0  0  0  0  0  0  0  0  0  0  0
    1.8130   -1.3715    0.6605 C   0  0  0  0  0  0  0  0  0  0  0  0
    2.9760   -0.7952    0.9472 N   0  0  0  0  0  0  0  0  0  0  0  0
    3.0577    0.4262    0.3908 C   0  0  0  0  0  0  0  0  0  0  0  0
    1.8764    0.5959   -0.2691 N   0  0  0  0  0  0  0  0  0  0  0  0
   -1.3093    1.1405    0.5297 C   0  0  0  0  0  0  0  0  0  0  0  0
   -0.2887    1.5962    1.1245 O   0  0  0  0  0  0  0  0  0  0  0  0
   -2.3578    1.9692    0.1447 O   0  0  0  0  0  0  0  0  0  0  0  0
   -2.6959   -0.1319   -1.3109 H   0  0  0  0  0  0  0  0  0  0  0  0
   -2.7682   -1.6412   -0.5075 H   0  0  0  0  0  0  0  0  0  0  0  0
   -1.3112   -0.8995    1.1846 H   0  0  0  0  0  0  0  0  0  0  0  0
   -0.3638   -0.1750   -1.6432 H   0  0  0  0  0  0  0  0  0  0  0  0
   -0.3625   -1.8017   -0.9483 H   0  0  0  0  0  0  0  0  0  0  0  0
    1.4858   -2.3431    0.9751 H   0  0  0  0  0  0  0  0  0  0  0  0
    3.8802    1.1264    0.4506 H   0  0  0  0  0  0  0  0  0  0  0  0
    1.6581    1.4576   -0.7982 H   0  0  0  0  0  0  0  0  0  0  0  0
   -2.1698    2.9599    0.0107 H   0  0  0  0  0  0  0  0  0  0  0  0
  1  2  1  0
  2  3  1  0
  3  4  1  0
  4  5  2  0
  5  6  1  0
  6  7  2  0
  7  8  1  0
  2  9  1  0
  9 10  2  0
  9 11  1  0
  8  4  1  0
  1 12  1  0
  1 13  1  0
  2 14  1  1
  3 15  1  0
  3 16  1  0
  5 17  1  0
  7 18  1  0
  8 19  1  0
 11 20  1  0
M  END
$$$$

     RDKit          3D

 20 20  0  0  0  0  0  0  0  0999 V2000
    1.0568   -1.4691    0.9153 N   0  0  0  0  0  0  0  0  0  0  0  0
    1.4844   -0.5816   -0.1461 C   0  0  1  0  0  0  0  0  0  0  0  0
    0.3487   -0.5212   -1.1455 C   0  0  0  0  0  0  0  0  0  0  0  0
   -0.8948   -0.0015   -0.5160 C   0  0  0  0  0  0  0  0  0  0  0  0
   -1.3141    1.3164   -0.4253 C   0  0  0  0  0  0  0  0  0  0  0  0
   -2.4807    1.3768    0.2106 N   0  0  0  0  0  0  0  0  0  0  0  0
   -2.8329    0.1269    0.5374 C   0  0  0  0  0  0  0  0  0  0  0  0
   -1.8726   -0.7043    0.0970 N   0  0  0  0  0  0  0  0  0  0  0  0
    1.7982    0.7246    0.4360 C   0  0  0  0  0  0  0  0  0  0  0  0
    1.6655    0.8847    1.6706 O   0  0  0  0  0  0  0  0  0  0  0  0
    2.2402    1.8174   -0.2972 O   0  0  0  0  0  0  0  0  0  0  0  0
    0.4653   -2.2341    0.5690 H   0  0  0  0  0  0  0  0  0  0  0  0
    0.6129   -0.9193    1.6610 H   0  0  0  0  0  0  0  0  0  0  0  0
    2.3548   -1.0339   -0.6780 H   0  0  0  0  0  0  0  0  0  0  0  0
    0.1900   -1.5791   -1.4895 H   0  0  0  0  0  0  0  0  0  0  0  0
    0.6420    0.0474   -2.0481 H   0  0  0  0  0  0  0  0  0  0  0  0
   -0.7465    2.1623   -0.8277 H   0  0  0  0  0  0  0  0  0  0  0  0
   -3.7432   -0.1765    1.0708 H   0  0  0  0  0  0  0  0  0  0  0  0
   -1.8557   -1.7419    0.1980 H   0  0  0  0  0  0  0  0  0  0  0  0
    2.8818    2.5060    0.0891 H   0  0  0  0  0  0  0  0  0  0  0  0
  1  2  1  0
  2  3  1  0
  3  4  1  0
  4  5  2  0
  5  6  1  0
  6  7  2  0
  7  8  1  0
  2  9  1  0
  9 10  2  0
  9 11  1  0
  8  4  1  0
  1 12  1  0
  1 13  1  0
  2 14  1  6
  3 15  1  0
  3 16  1  0
  5 17  1  0
  7 18  1  0
  8 19  1  0
 11 20  1  0
M  END
$$$$

     RDKit          3D

 20 20  0  0  0  0  0  0  0  0999 V2000
   -1.2306   -1.3271   -0.2151 N   0  0  0  0  0  0  0  0  0  0  0  0
   -1.1588   -0.1561    0.6170 C   0  0  1  0  0  0  0  0  0  0  0  0
   -0.1425    0.8356    0.1722 C   0  0  0  0  0  0  0  0  0  0  0  0
    1.2362    0.2858    0.1523 C   0  0  0  0  0  0  0  0  0  0  0  0
    1.6227   -0.9907    0.4925 C   0  0  0  0  0  0  0  0  0  0  0  0
    2.9558   -1.1246    0.3507 N   0  0  0  0  0  0  0  0  0  0  0  0
    3.3904    0.0823   -0.0807 C   0  0  0  0  0  0  0  0  0  0  0  0
    2.3576    0.9356   -0.2018 N   0  0  0  0  0  0  0  0  0  0  0  0
   -2.4905    0.5024    0.5945 C   0  0  0  0  0  0  0  0  0  0  0  0
   -2.7333    1.5701    1.2432 O   0  0  0  0  0  0  0  0  0  0  0  0
   -3.5505   -0.0112   -0.1382 O   0  0  0  0  0  0  0  0  0  0  0  0
   -0.6095   -1.3291   -1.0250 H   0  0  0  0  0  0  0  0  0  0  0  0
   -1.3396   -2.2133    0.2897 H   0  0  0  0  0  0  0  0  0  0  0  0
   -1.0038   -0.5031    1.6653 H   0  0  0  0  0  0  0  0  0  0  0  0
   -0.4498    1.2184   -0.8239 H   0  0  0  0  0  0  0  0  0  0  0  0
   -0.1513    1.6798    0.9005 H   0  0  0  0  0  0  0  0  0  0  0  0
    0.9574   -1.7655    0.8225 H   0  0  0  0  0  0  0  0  0  0  0  0
    4.4551    0.2737   -0.2858 H   0  0  0  0  0  0  0  0  0  0  0  0
    2.4079    1.9366   -0.5170 H   0  0  0  0  0  0  0  0  0  0  0  0
   -4.5228    0.1002    0.1843 H   0  0  0  0  0  0  0  0  0  0  0  0
  1  2  1  0
  2  3  1  0
  3  4  1  0
  4  5  2  0
  5  6  1  0
  6  7  2  0
  7  8  1  0
  2  9  1  0
  9 10  2  0
  9 11  1  0
  8  4  1  0
  1 12  1  0
  1 13  1  0
  2 14  1  1
  3 15  1  0
  3 16  1  0
  5 17  1  0
  7 18  1  0
  8 19  1  0
 11 20  1  0
M  END
$$$$

     RDKit          3D

 20 20  0  0  0  0  0  0  0  0999 V2000
   -2.4819   -1.3590    0.1137 N   0  0  0  0  0  0  0  0  0  0  0  0
   -1.2988   -0.4873    0.2874 C   0  0  1  0  0  0  0  0  0  0  0  0
   -0.1428   -1.0501   -0.4804 C   0  0  0  0  0  0  0  0  0  0  0  0
    1.0510   -0.1967   -0.3211 C   0  0  0  0  0  0  0  0  0  0  0  0
    1.4631    0.8607   -1.1033 C   0  0  0  0  0  0  0  0  0  0  0  0
    2.6016    1.3201   -0.5625 N   0  0  0  0  0  0  0  0  0  0  0  0
    2.9343    0.6085    0.5238 C   0  0  0  0  0  0  0  0  0  0  0  0
    1.9783   -0.3250    0.6708 N   0  0  0  0  0  0  0  0  0  0  0  0
   -1.6465    0.9043   -0.0448 C   0  0  0  0  0  0  0  0  0  0  0  0
   -2.8018    1.2207   -0.4866 O   0  0  0  0  0  0  0  0  0  0  0  0
   -0.7332    1.9110    0.1126 O   0  0  0  0  0  0  0  0  0  0  0  0
   -3.1340   -1.0932    0.8695 H   0  0  0  0  0  0  0  0  0  0  0  0
   -2.1501   -2.3286    0.2964 H   0  0  0  0  0  0  0  0  0  0  0  0
   -1.1032   -0.5176    1.3844 H   0  0  0  0  0  0  0  0  0  0  0  0
   -0.3588   -1.2192   -1.5429 H   0  0  0  0  0  0  0  0  0  0  0  0
    0.0833   -2.0565   -0.0400 H   0  0  0  0  0  0  0  0  0  0  0  0
    0.9194    1.2074   -1.9827 H   0  0  0  0  0  0  0  0  0  0  0  0
    3.8170    0.8079    1.1151 H   0  0  0  0  0  0  0  0  0  0  0  0
    1.9515   -1.0478    1.4392 H   0  0  0  0  0  0  0  0  0  0  0  0
   -0.9484    2.8403   -0.2485 H   0  0  0  0  0  0  0  0  0  0  0  0
  1  2  1  0
  2  3  1  0
  3  4  1  0
  4  5  2  0
  5  6  1  0
  6  7  2  0
  7  8  1  0
  2  9  1  0
  9 10  2  0
  9 11  1  0
  8  4  1  0
  1 12  1  0
  1 13  1  0
  2 14  1  1
  3 15  1  0
  3 16  1  0
  5 17  1  0
  7 18  1  0
  8 19  1  0
 11 20  1  0
M  END
$$$$

     RDKit          3D

 20 20  0  0  0  0  0  0  0  0999 V2000
   -2.1435   -1.5783    0.9805 N   0  0  0  0  0  0  0  0  0  0  0  0
   -1.1589   -0.4927    0.7985 C   0  0  1  0  0  0  0  0  0  0  0  0
    0.0375   -1.0813    0.1241 C   0  0  0  0  0  0  0  0  0  0  0  0
    1.1600   -0.1559   -0.0888 C   0  0  0  0  0  0  0  0  0  0  0  0
    2.2441   -0.5174   -0.8943 C   0  0  0  0  0  0  0  0  0  0  0  0
    3.1100    0.5031   -0.8643 N   0  0  0  0  0  0  0  0  0  0  0  0
    2.6471    1.4863   -0.0936 C   0  0  0  0  0  0  0  0  0  0  0  0
    1.4516    1.0571    0.3697 N   0  0  0  0  0  0  0  0  0  0  0  0
   -1.7877    0.4647   -0.1844 C   0  0  0  0  0  0  0  0  0  0  0  0
   -2.9581    0.2617   -0.6069 O   0  0  0  0  0  0  0  0  0  0  0  0
   -1.1460    1.5749   -0.6619 O   0  0  0  0  0  0  0  0  0  0  0  0
   -2.6072   -1.7505    0.0819 H   0  0  0  0  0  0  0  0  0  0  0  0
   -2.7926   -1.3718    1.7596 H   0  0  0  0  0  0  0  0  0  0  0  0
   -0.9926   -0.0042    1.7502 H   0  0  0  0  0  0  0  0  0  0  0  0
    0.4486   -1.9016    0.7863 H   0  0  0  0  0  0  0  0  0  0  0  0
   -0.2321   -1.5796   -0.8371 H   0  0  0  0  0  0  0  0  0  0  0  0
    2.3834   -1.4397   -1.4484 H   0  0  0  0  0  0  0  0  0  0  0  0
    3.0826    2.4395    0.1477 H   0  0  0  0  0  0  0  0  0  0  0  0
    0.8713    1.6145    1.0101 H   0  0  0  0  0  0  0  0  0  0  0  0
   -1.6174    2.4713   -0.7811 H   0  0  0  0  0  0  0  0  0  0  0  0
  1  2  1  0
  2  3  1  0
  3  4  1  0
  4  5  2  0
  5  6  1  0
  6  7  2  0
  7  8  1  0
  2  9  1  0
  9 10  2  0
  9 11  1  0
  8  4  1  0
  1 12  1  0
  1 13  1  0
  2 14  1  1
  3 15  1  0
  3 16  1  0
  5 17  1  0
  7 18  1  0
  8 19  1  0
 11 20  1  0
M  END
$$$$

     RDKit          3D

 20 20  0  0  0  0  0  0  0  0999 V2000
   -2.4911   -1.2922   -0.1959 N   0  0  0  0  0  0  0  0  0  0  0  0
   -1.3696   -0.5166    0.4207 C   0  0  1  0  0  0  0  0  0  0  0  0
   -0.2016   -0.7917   -0.4627 C   0  0  0  0  0  0  0  0  0  0  0  0
    1.0681   -0.1823   -0.0424 C   0  0  0  0  0  0  0  0  0  0  0  0
    1.4504    0.4565    1.1029 C   0  0  0  0  0  0  0  0  0  0  0  0
    2.7300    0.8539    0.9664 N   0  0  0  0  0  0  0  0  0  0  0  0
    3.1615    0.4774   -0.2412 C   0  0  0  0  0  0  0  0  0  0  0  0
    2.1556   -0.1517   -0.8556 N   0  0  0  0  0  0  0  0  0  0  0  0
   -1.8211    0.8891    0.3127 C   0  0  0  0  0  0  0  0  0  0  0  0
   -2.9461    1.1638   -0.1542 O   0  0  0  0  0  0  0  0  0  0  0  0
   -1.0291    1.9283    0.7162 O   0  0  0  0  0  0  0  0  0  0  0  0
   -2.6572   -0.8782   -1.1612 H   0  0  0  0  0  0  0  0  0  0  0  0
   -2.0558   -2.2340   -0.4027 H   0  0  0  0  0  0  0  0  0  0  0  0
   -1.2648   -0.8799    1.4468 H   0  0  0  0  0  0  0  0  0  0  0  0
   -0.4890   -0.4622   -1.5061 H   0  0  0  0  0  0  0  0  0  0  0  0
   -0.0059   -1.9021   -0.5250 H   0  0  0  0  0  0  0  0  0  0  0  0
    0.8619    0.6125    1.9793 H   0  0  0  0  0  0  0  0  0  0  0  0
    4.1674    0.6693   -0.6223 H   0  0  0  0  0  0  0  0  0  0  0  0
    2.2230   -0.5464   -1.8081 H   0  0  0  0  0  0  0  0  0  0  0  0
   -1.4869    2.7864    1.0326 H   0  0  0  0  0  0  0  0  0  0  0  0
  1  2  1  0
  2  3  1  0
  3  4  1  0
  4  5  2  0
  5  6  1  0
  6  7  2  0
  7  8  1  0
  2  9  1  0
  9 10  2  0
  9 11  1  0
  8  4  1  0
  1 12  1  0
  1 13  1  0
  2 14  1  1
  3 15  1  0
  3 16  1  0
  5 17  1  0
  7 18  1  0
  8 19  1  0
 11 20  1  0
M  END
$$$$

     RDKit          3D

 20 20  0  0  0  0  0  0  0  0999 V2000
   -1.0126    1.2569    0.6747 N   0  0  0  0  0  0  0  0  0  0  0  0
   -1.0751    0.1867   -0.2940 C   0  0  1  0  0  0  0  0  0  0  0  0
   -0.1492   -0.9009    0.1683 C   0  0  0  0  0  0  0  0  0  0  0  0
    1.2249   -0.3282    0.2443 C   0  0  0  0  0  0  0  0  0  0  0  0
    1.6803    0.9386   -0.0420 C   0  0  0  0  0  0  0  0  0  0  0  0
    2.9995    1.0048    0.1727 N   0  0  0  0  0  0  0  0  0  0  0  0
    3.3947   -0.2062    0.5935 C   0  0  0  0  0  0  0  0  0  0  0  0
    2.3301   -1.0252    0.6420 N   0  0  0  0  0  0  0  0  0  0  0  0
   -2.4553   -0.2477   -0.4798 C   0  0  0  0  0  0  0  0  0  0  0  0
   -2.8238   -1.1626   -1.2597 O   0  0  0  0  0  0  0  0  0  0  0  0
   -3.4607    0.3749    0.2435 O   0  0  0  0  0  0  0  0  0  0  0  0
   -1.7734    1.9494    0.5190 H   0  0  0  0  0  0  0  0  0  0  0  0
   -0.9983    0.8958    1.6630 H   0  0  0  0  0  0  0  0  0  0  0  0
   -0.6596    0.5636   -1.2570 H   0  0  0  0  0  0  0  0  0  0  0  0
   -0.4439   -1.1943    1.2098 H   0  0  0  0  0  0  0  0  0  0  0  0
   -0.1966   -1.8079   -0.4480 H   0  0  0  0  0  0  0  0  0  0  0  0
    1.0382    1.7614   -0.3952 H   0  0  0  0  0  0  0  0  0  0  0  0
    4.4407   -0.4212    0.8411 H   0  0  0  0  0  0  0  0  0  0  0  0
    2.3703   -2.0335    0.9412 H   0  0  0  0  0  0  0  0  0  0  0  0
   -4.4301    0.3957   -0.0603 H   0  0  0  0  0  0  0  0  0  0  0  0
  1  2  1  0
  2  3  1  0
  3  4  1  0
  4  5  2  0
  5  6  1  0
  6  7  2  0
  7  8  1  0
  2  9  1  0
  9 10  2  0
  9 11  1  0
  8  4  1  0
  1 12  1  0
  1 13  1  0
  2 14  1  6
  3 15  1  0
  3 16  1  0
  5 17  1  0
  7 18  1  0
  8 19  1  0
 11 20  1  0
M  END
$$$$

     RDKit          3D

 20 20  0  0  0  0  0  0  0  0999 V2000
   -1.1148   -1.2231    0.7695 N   0  0  0  0  0  0  0  0  0  0  0  0
   -1.0593    0.1613    0.4287 C   0  0  1  0  0  0  0  0  0  0  0  0
   -0.1688    0.4240   -0.7898 C   0  0  0  0  0  0  0  0  0  0  0  0
    1.2187   -0.0284   -0.5189 C   0  0  0  0  0  0  0  0  0  0  0  0
    2.2808    0.0503   -1.3822 C   0  0  0  0  0  0  0  0  0  0  0  0
    3.3604   -0.4705   -0.7459 N   0  0  0  0  0  0  0  0  0  0  0  0
    3.0069   -0.8667    0.4738 C   0  0  0  0  0  0  0  0  0  0  0  0
    1.6847   -0.5913    0.6077 N   0  0  0  0  0  0  0  0  0  0  0  0
   -2.4118    0.6999    0.2066 C   0  0  0  0  0  0  0  0  0  0  0  0
   -3.4120   -0.0484    0.3273 O   0  0  0  0  0  0  0  0  0  0  0  0
   -2.5647    2.0319   -0.1344 O   0  0  0  0  0  0  0  0  0  0  0  0
   -1.9087   -1.6657    0.2536 H   0  0  0  0  0  0  0  0  0  0  0  0
   -1.1716   -1.4097    1.8002 H   0  0  0  0  0  0  0  0  0  0  0  0
   -0.5347    0.6902    1.2773 H   0  0  0  0  0  0  0  0  0  0  0  0
   -0.5893   -0.0854   -1.6823 H   0  0  0  0  0  0  0  0  0  0  0  0
   -0.1810    1.5206   -0.9733 H   0  0  0  0  0  0  0  0  0  0  0  0
    2.2966    0.4451   -2.3868 H   0  0  0  0  0  0  0  0  0  0  0  0
    3.6091   -1.3244    1.2501 H   0  0  0  0  0  0  0  0  0  0  0  0
    1.1227   -0.7870    1.4528 H   0  0  0  0  0  0  0  0  0  0  0  0
   -3.4633    2.4771   -0.2340 H   0  0  0  0  0  0  0  0  0  0  0  0
  1  2  1  0
  2  3  1  0
  3  4  1  0
  4  5  2  0
  5  6  1  0
  6  7  2  0
  7  8  1  0
  2  9  1  0
  9 10  2  0
  9 11  1  0
  8  4  1  0
  1 12  1  0
  1 13  1  0
  2 14  1  1
  3 15  1  0
  3 16  1  0
  5 17  1  0
  7 18  1  0
  8 19  1  0
 11 20  1  0
M  END
$$$$

     RDKit          3D

 20 20  0  0  0  0  0  0  0  0999 V2000
    1.9670    1.9813   -0.1306 N   0  0  0  0  0  0  0  0  0  0  0  0
    1.3049    0.7451    0.3781 C   0  0  1  0  0  0  0  0  0  0  0  0
   -0.1149    0.8911   -0.0380 C   0  0  0  0  0  0  0  0  0  0  0  0
   -1.0330   -0.1696    0.3704 C   0  0  0  0  0  0  0  0  0  0  0  0
   -0.9298   -1.2473    1.1911 C   0  0  0  0  0  0  0  0  0  0  0  0
   -2.1168   -1.9227    1.1792 N   0  0  0  0  0  0  0  0  0  0  0  0
   -2.9451   -1.2675    0.3596 C   0  0  0  0  0  0  0  0  0  0  0  0
   -2.3026   -0.2153   -0.1289 N   0  0  0  0  0  0  0  0  0  0  0  0
    2.0009   -0.3410   -0.3550 C   0  0  0  0  0  0  0  0  0  0  0  0
    2.9320   -0.0488   -1.1406 O   0  0  0  0  0  0  0  0  0  0  0  0
    1.6829   -1.6689   -0.2248 O   0  0  0  0  0  0  0  0  0  0  0  0
    1.6845    1.9897   -1.1561 H   0  0  0  0  0  0  0  0  0  0  0  0
    1.3801    2.7542    0.2937 H   0  0  0  0  0  0  0  0  0  0  0  0
    1.4600    0.7051    1.4699 H   0  0  0  0  0  0  0  0  0  0  0  0
   -0.4787    1.8743    0.3836 H   0  0  0  0  0  0  0  0  0  0  0  0
   -0.1319    0.9331   -1.1545 H   0  0  0  0  0  0  0  0  0  0  0  0
   -0.0496   -1.5050    1.7650 H   0  0  0  0  0  0  0  0  0  0  0  0
   -3.9744   -1.5564    0.1357 H   0  0  0  0  0  0  0  0  0  0  0  0
   -2.7521    0.4550   -0.8001 H   0  0  0  0  0  0  0  0  0  0  0  0
    2.4165   -2.3861   -0.1460 H   0  0  0  0  0  0  0  0  0  0  0  0
  1  2  1  0
  2  3  1  0
  3  4  1  0
  4  5  2  0
  5  6  1  0
  6  7  2  0
  7  8  1  0
  2  9  1  0
  9 10  2  0
  9 11  1  0
  8  4  1  0
  1 12  1  0
  1 13  1  0
  2 14  1  1
  3 15  1  0
  3 16  1  0
  5 17  1  0
  7 18  1  0
  8 19  1  0
 11 20  1  0
M  END
$$$$

     RDKit          3D

 20 20  0  0  0  0  0  0  0  0999 V2000
   -2.1579   -1.7543   -0.1884 N   0  0  0  0  0  0  0  0  0  0  0  0
   -1.2491   -0.7297    0.3800 C   0  0  1  0  0  0  0  0  0  0  0  0
    0.0034   -0.8072   -0.4096 C   0  0  0  0  0  0  0  0  0  0  0  0
    1.0936    0.0786   -0.0223 C   0  0  0  0  0  0  0  0  0  0  0  0
    1.2955    0.9271    1.0171 C   0  0  0  0  0  0  0  0  0  0  0  0
    2.4897    1.5276    0.8740 N   0  0  0  0  0  0  0  0  0  0  0  0
    3.0420    1.0646   -0.2454 C   0  0  0  0  0  0  0  0  0  0  0  0
    2.2100    0.1869   -0.7994 N   0  0  0  0  0  0  0  0  0  0  0  0
   -1.9283    0.5622    0.0338 C   0  0  0  0  0  0  0  0  0  0  0  0
   -3.0481    0.5162   -0.5803 O   0  0  0  0  0  0  0  0  0  0  0  0
   -1.4512    1.8100    0.3194 O   0  0  0  0  0  0  0  0  0  0  0  0
   -1.6140   -2.4828   -0.7006 H   0  0  0  0  0  0  0  0  0  0  0  0
   -2.7277   -2.1544    0.5903 H   0  0  0  0  0  0  0  0  0  0  0  0
   -1.1374   -0.8629    1.4500 H   0  0  0  0  0  0  0  0  0  0  0  0
    0.4204   -1.8582   -0.4019 H   0  0  0  0  0  0  0  0  0  0  0  0
   -0.2017   -0.6257   -1.5048 H   0  0  0  0  0  0  0  0  0  0  0  0
    0.6017    1.0773    1.8352 H   0  0  0  0  0  0  0  0  0  0  0  0
    4.0243    1.3363   -0.6791 H   0  0  0  0  0  0  0  0  0  0  0  0
    2.4142   -0.3229   -1.6945 H   0  0  0  0  0  0  0  0  0  0  0  0
   -2.0794    2.5113    0.7265 H   0  0  0  0  0  0  0  0  0  0  0  0
  1  2  1  0
  2  3  1  0
  3  4  1  0
  4  5  2  0
  5  6  1  0
  6  7  2  0
  7  8  1  0
  2  9  1  0
  9 10  2  0
  9 11  1  0
  8  4  1  0
  1 12  1  0
  1 13  1  0
  2 14  1  1
  3 15  1  0
  3 16  1  0
  5 17  1  0
  7 18  1  0
  8 19  1  0
 11 20  1  0
M  END
$$$$

     RDKit          3D

 20 20  0  0  0  0  0  0  0  0999 V2000
   -1.2795   -1.1917   -0.9572 N   0  0  0  0  0  0  0  0  0  0  0  0
   -1.4070   -0.6572    0.3638 C   0  0  1  0  0  0  0  0  0  0  0  0
   -0.1527   -0.9109    1.1649 C   0  0  0  0  0  0  0  0  0  0  0  0
    1.0341   -0.2861    0.5417 C   0  0  0  0  0  0  0  0  0  0  0  0
    1.8755   -0.8798   -0.3905 C   0  0  0  0  0  0  0  0  0  0  0  0
    2.8546   -0.0180   -0.7407 N   0  0  0  0  0  0  0  0  0  0  0  0
    2.6417    1.1147   -0.0402 C   0  0  0  0  0  0  0  0  0  0  0  0
    1.5451    0.9441    0.7281 N   0  0  0  0  0  0  0  0  0  0  0  0
   -1.7292    0.7921    0.3720 C   0  0  0  0  0  0  0  0  0  0  0  0
   -1.8605    1.3490    1.4930 O   0  0  0  0  0  0  0  0  0  0  0  0
   -1.8897    1.5487   -0.7766 O   0  0  0  0  0  0  0  0  0  0  0  0
   -2.1616   -1.1999   -1.4698 H   0  0  0  0  0  0  0  0  0  0  0  0
   -0.4389   -0.9352   -1.4676 H   0  0  0  0  0  0  0  0  0  0  0  0
   -2.2574   -1.1752    0.8521 H   0  0  0  0  0  0  0  0  0  0  0  0
    0.0043   -2.0063    1.2576 H   0  0  0  0  0  0  0  0  0  0  0  0
   -0.2563   -0.5151    2.1954 H   0  0  0  0  0  0  0  0  0  0  0  0
    1.7555   -1.8849   -0.7731 H   0  0  0  0  0  0  0  0  0  0  0  0
    3.2378    2.0227   -0.0721 H   0  0  0  0  0  0  0  0  0  0  0  0
    1.1640    1.6769    1.3697 H   0  0  0  0  0  0  0  0  0  0  0  0
   -2.6796    2.2121   -0.8099 H   0  0  0  0  0  0  0  0  0  0  0  0
  1  2  1  0
  2  3  1  0
  3  4  1  0
  4  5  2  0
  5  6  1  0
  6  7  2  0
  7  8  1  0
  2  9  1  0
  9 10  2  0
  9 11  1  0
  8  4  1  0
  1 12  1  0
  1 13  1  0
  2 14  1  1
  3 15  1  0
  3 16  1  0
  5 17  1  0
  7 18  1  0
  8 19  1  0
 11 20  1  0
M  END
$$$$

     RDKit          3D

 20 20  0  0  0  0  0  0  0  0999 V2000
   -1.0279    0.7864    1.4093 N   0  0  0  0  0  0  0  0  0  0  0  0
   -1.0739    0.3797    0.0339 C   0  0  1  0  0  0  0  0  0  0  0  0
   -0.0980   -0.7013   -0.2802 C   0  0  0  0  0  0  0  0  0  0  0  0
    1.3033   -0.3348   -0.0321 C   0  0  0  0  0  0  0  0  0  0  0  0
    2.3502   -1.2036   -0.2631 C   0  0  0  0  0  0  0  0  0  0  0  0
    3.4865   -0.5666    0.0620 N   0  0  0  0  0  0  0  0  0  0  0  0
    3.1496    0.6577    0.4808 C   0  0  0  0  0  0  0  0  0  0  0  0
    1.8144    0.8191    0.4304 N   0  0  0  0  0  0  0  0  0  0  0  0
   -2.4386   -0.1252   -0.2838 C   0  0  0  0  0  0  0  0  0  0  0  0
   -2.7524   -0.5467   -1.4263 O   0  0  0  0  0  0  0  0  0  0  0  0
   -3.4425   -0.1543    0.6815 O   0  0  0  0  0  0  0  0  0  0  0  0
   -1.2217   -0.0507    2.0268 H   0  0  0  0  0  0  0  0  0  0  0  0
   -1.7486    1.5119    1.5877 H   0  0  0  0  0  0  0  0  0  0  0  0
   -0.8452    1.2739   -0.6060 H   0  0  0  0  0  0  0  0  0  0  0  0
   -0.2056   -1.0267   -1.3210 H   0  0  0  0  0  0  0  0  0  0  0  0
   -0.3336   -1.5739    0.3634 H   0  0  0  0  0  0  0  0  0  0  0  0
    2.3378   -2.2237   -0.6360 H   0  0  0  0  0  0  0  0  0  0  0  0
    3.8845    1.3923    0.8087 H   0  0  0  0  0  0  0  0  0  0  0  0
    1.2785    1.6666    0.6955 H   0  0  0  0  0  0  0  0  0  0  0  0
   -4.4169    0.0199    0.4660 H   0  0  0  0  0  0  0  0  0  0  0  0
  1  2  1  0
  2  3  1  0
  3  4  1  0
  4  5  2  0
  5  6  1  0
  6  7  2  0
  7  8  1  0
  2  9  1  0
  9 10  2  0
  9 11  1  0
  8  4  1  0
  1 12  1  0
  1 13  1  0
  2 14  1  6
  3 15  1  0
  3 16  1  0
  5 17  1  0
  7 18  1  0
  8 19  1  0
 11 20  1  0
M  END
$$$$

     RDKit          3D

 20 20  0  0  0  0  0  0  0  0999 V2000
   -2.4679   -1.2691    0.4429 N   0  0  0  0  0  0  0  0  0  0  0  0
   -1.3841   -0.2568    0.4731 C   0  0  1  0  0  0  0  0  0  0  0  0
   -0.1345   -0.9691    0.1037 C   0  0  0  0  0  0  0  0  0  0  0  0
    1.1072   -0.2159    0.1044 C   0  0  0  0  0  0  0  0  0  0  0  0
    2.2839   -0.7852   -0.4104 C   0  0  0  0  0  0  0  0  0  0  0  0
    3.2701    0.0939   -0.2624 N   0  0  0  0  0  0  0  0  0  0  0  0
    2.8175    1.1974    0.3138 C   0  0  0  0  0  0  0  0  0  0  0  0
    1.4897    0.9889    0.5317 N   0  0  0  0  0  0  0  0  0  0  0  0
   -1.8109    0.7560   -0.5057 C   0  0  0  0  0  0  0  0  0  0  0  0
   -2.9066    0.6530   -1.1106 O   0  0  0  0  0  0  0  0  0  0  0  0
   -1.0406    1.8513   -0.8033 O   0  0  0  0  0  0  0  0  0  0  0  0
   -2.6042   -1.6995    1.3600 H   0  0  0  0  0  0  0  0  0  0  0  0
   -2.2836   -1.9633   -0.3159 H   0  0  0  0  0  0  0  0  0  0  0  0
   -1.3203    0.1053    1.5122 H   0  0  0  0  0  0  0  0  0  0  0  0
   -0.2712   -1.4543   -0.8986 H   0  0  0  0  0  0  0  0  0  0  0  0
   -0.0134   -1.8060    0.8426 H   0  0  0  0  0  0  0  0  0  0  0  0
    2.4179   -1.7547   -0.8554 H   0  0  0  0  0  0  0  0  0  0  0  0
    3.4098    2.0653    0.5477 H   0  0  0  0  0  0  0  0  0  0  0  0
    0.8793    1.6778    0.9838 H   0  0  0  0  0  0  0  0  0  0  0  0
   -1.4380    2.7847   -0.9707 H   0  0  0  0  0  0  0  0  0  0  0  0
  1  2  1  0
  2  3  1  0
  3  4  1  0
  4  5  2  0
  5  6  1  0
  6  7  2  0
  7  8  1  0
  2  9  1  0
  9 10  2  0
  9 11  1  0
  8  4  1  0
  1 12  1  0
  1 13  1  0
  2 14  1  1
  3 15  1  0
  3 16  1  0
  5 17  1  0
  7 18  1  0
  8 19  1  0
 11 20  1  0
M  END
$$$$

     RDKit          3D

 20 20  0  0  0  0  0  0  0  0999 V2000
   -2.3065   -1.4619    0.3119 N   0  0  0  0  0  0  0  0  0  0  0  0
   -1.1915   -0.5134    0.5441 C   0  0  1  0  0  0  0  0  0  0  0  0
   -0.0942   -0.9904   -0.3448 C   0  0  0  0  0  0  0  0  0  0  0  0
    1.1694   -0.2530   -0.2842 C   0  0  0  0  0  0  0  0  0  0  0  0
    2.1977   -0.5181   -1.1996 C   0  0  0  0  0  0  0  0  0  0  0  0
    3.2255    0.2734   -0.8883 N   0  0  0  0  0  0  0  0  0  0  0  0
    2.8816    1.0092    0.1696 C   0  0  0  0  0  0  0  0  0  0  0  0
    1.6245    0.6838    0.5356 N   0  0  0  0  0  0  0  0  0  0  0  0
   -1.7370    0.8016    0.1004 C   0  0  0  0  0  0  0  0  0  0  0  0
   -2.9311    0.8616   -0.3097 O   0  0  0  0  0  0  0  0  0  0  0  0
   -1.0466    1.9935    0.0928 O   0  0  0  0  0  0  0  0  0  0  0  0
   -2.8163   -1.1732   -0.5438 H   0  0  0  0  0  0  0  0  0  0  0  0
   -2.8946   -1.5513    1.1570 H   0  0  0  0  0  0  0  0  0  0  0  0
   -0.9830   -0.5375    1.6120 H   0  0  0  0  0  0  0  0  0  0  0  0
   -0.5012   -1.0648   -1.3860 H   0  0  0  0  0  0  0  0  0  0  0  0
    0.1396   -2.0540   -0.0534 H   0  0  0  0  0  0  0  0  0  0  0  0
    2.1750   -1.2295   -2.0120 H   0  0  0  0  0  0  0  0  0  0  0  0
    3.4589    1.7642    0.7047 H   0  0  0  0  0  0  0  0  0  0  0  0
    1.1001    1.0954    1.3461 H   0  0  0  0  0  0  0  0  0  0  0  0
   -1.4704    2.8645    0.4476 H   0  0  0  0  0  0  0  0  0  0  0  0
  1  2  1  0
  2  3  1  0
  3  4  1  0
  4  5  2  0
  5  6  1  0
  6  7  2  0
  7  8  1  0
  2  9  1  0
  9 10  2  0
  9 11  1  0
  8  4  1  0
  1 12  1  0
  1 13  1  0
  2 14  1  1
  3 15  1  0
  3 16  1  0
  5 17  1  0
  7 18  1  0
  8 19  1  0
 11 20  1  0
M  END
$$$$

     RDKit          3D

 20 20  0  0  0  0  0  0  0  0999 V2000
   -2.1929   -1.7037    0.4911 N   0  0  0  0  0  0  0  0  0  0  0  0
   -1.1407   -0.6720    0.5184 C   0  0  1  0  0  0  0  0  0  0  0  0
   -0.0056   -1.0706   -0.3826 C   0  0  0  0  0  0  0  0  0  0  0  0
    1.1050   -0.1024   -0.3247 C   0  0  0  0  0  0  0  0  0  0  0  0
    2.1377   -0.0389   -1.2778 C   0  0  0  0  0  0  0  0  0  0  0  0
    2.9636    0.9174   -0.8470 N   0  0  0  0  0  0  0  0  0  0  0  0
    2.5234    1.4525    0.3009 C   0  0  0  0  0  0  0  0  0  0  0  0
    1.3697    0.8131    0.6180 N   0  0  0  0  0  0  0  0  0  0  0  0
   -1.7442    0.6032    0.0010 C   0  0  0  0  0  0  0  0  0  0  0  0
   -2.9801    0.6368   -0.1811 O   0  0  0  0  0  0  0  0  0  0  0  0
   -0.9806    1.6925   -0.2669 O   0  0  0  0  0  0  0  0  0  0  0  0
   -1.7877   -2.5522    0.9365 H   0  0  0  0  0  0  0  0  0  0  0  0
   -3.0596   -1.3761    0.9249 H   0  0  0  0  0  0  0  0  0  0  0  0
   -0.8640   -0.5044    1.5593 H   0  0  0  0  0  0  0  0  0  0  0  0
   -0.3695   -1.1454   -1.4343 H   0  0  0  0  0  0  0  0  0  0  0  0
    0.3525   -2.0930   -0.1086 H   0  0  0  0  0  0  0  0  0  0  0  0
    2.1981   -0.6688   -2.1684 H   0  0  0  0  0  0  0  0  0  0  0  0
    2.9789    2.2412    0.8825 H   0  0  0  0  0  0  0  0  0  0  0  0
    0.8182    1.0253    1.4915 H   0  0  0  0  0  0  0  0  0  0  0  0
   -1.3223    2.5456   -0.7327 H   0  0  0  0  0  0  0  0  0  0  0  0
  1  2  1  0
  2  3  1  0
  3  4  1  0
  4  5  2  0
  5  6  1  0
  6  7  2  0
  7  8  1  0
  2  9  1  0
  9 10  2  0
  9 11  1  0
  8  4  1  0
  1 12  1  0
  1 13  1  0
  2 14  1  1
  3 15  1  0
  3 16  1  0
  5 17  1  0
  7 18  1  0
  8 19  1  0
 11 20  1  0
M  END
$$$$

     RDKit          3D

 20 20  0  0  0  0  0  0  0  0999 V2000
    2.3232    1.4064    0.0396 N   0  0  0  0  0  0  0  0  0  0  0  0
    1.1575    0.5633    0.4060 C   0  0  1  0  0  0  0  0  0  0  0  0
    0.0510    0.8344   -0.5510 C   0  0  0  0  0  0  0  0  0  0  0  0
   -1.1980    0.0956   -0.2465 C   0  0  0  0  0  0  0  0  0  0  0  0
   -2.3007   -0.0406   -1.1026 C   0  0  0  0  0  0  0  0  0  0  0  0
   -3.2520   -0.7339   -0.4585 N   0  0  0  0  0  0  0  0  0  0  0  0
   -2.8207   -1.0471    0.7571 C   0  0  0  0  0  0  0  0  0  0  0  0
   -1.5761   -0.5377    0.8711 N   0  0  0  0  0  0  0  0  0  0  0  0
    1.6268   -0.8621    0.2746 C   0  0  0  0  0  0  0  0  0  0  0  0
    0.8602   -1.8338    0.4081 O   0  0  0  0  0  0  0  0  0  0  0  0
    2.9720   -1.1248   -0.0079 O   0  0  0  0  0  0  0  0  0  0  0  0
    2.3842    1.5308   -0.9763 H   0  0  0  0  0  0  0  0  0  0  0  0
    2.1651    2.3413    0.4879 H   0  0  0  0  0  0  0  0  0  0  0  0
    0.9109    0.7908    1.4404 H   0  0  0  0  0  0  0  0  0  0  0  0
   -0.2250    1.9214   -0.5581 H   0  0  0  0  0  0  0  0  0  0  0  0
    0.3465    0.6080   -1.6002 H   0  0  0  0  0  0  0  0  0  0  0  0
   -2.3227    0.3660   -2.1022 H   0  0  0  0  0  0  0  0  0  0  0  0
   -3.3602   -1.5996    1.5045 H   0  0  0  0  0  0  0  0  0  0  0  0
   -1.0214   -0.6349    1.7564 H   0  0  0  0  0  0  0  0  0  0  0  0
    3.2793   -2.0434   -0.3425 H   0  0  0  0  0  0  0  0  0  0  0  0
  1  2  1  0
  2  3  1  0
  3  4  1  0
  4  5  2  0
  5  6  1  0
  6  7  2  0
  7  8  1  0
  2  9  1  0
  9 10  2  0
  9 11  1  0
  8  4  1  0
  1 12  1  0
  1 13  1  0
  2 14  1  1
  3 15  1  0
  3 16  1  0
  5 17  1  0
  7 18  1  0
  8 19  1  0
 11 20  1  0
M  END
$$$$

     RDKit          3D

 20 20  0  0  0  0  0  0  0  0999 V2000
    2.2632   -1.4528   -0.1357 N   0  0  0  0  0  0  0  0  0  0  0  0
    1.2096   -0.4874   -0.4196 C   0  0  1  0  0  0  0  0  0  0  0  0
    0.0083   -0.9124    0.3939 C   0  0  0  0  0  0  0  0  0  0  0  0
   -1.1598   -0.0407    0.2271 C   0  0  0  0  0  0  0  0  0  0  0  0
   -1.4991    1.0672    0.9437 C   0  0  0  0  0  0  0  0  0  0  0  0
   -2.6520    1.5783    0.4662 N   0  0  0  0  0  0  0  0  0  0  0  0
   -3.0230    0.7905   -0.5399 C   0  0  0  0  0  0  0  0  0  0  0  0
   -2.1249   -0.2031   -0.7010 N   0  0  0  0  0  0  0  0  0  0  0  0
    1.6374    0.8869   -0.0998 C   0  0  0  0  0  0  0  0  0  0  0  0
    0.8494    1.8265   -0.2912 O   0  0  0  0  0  0  0  0  0  0  0  0
    2.9211    1.1043    0.4122 O   0  0  0  0  0  0  0  0  0  0  0  0
    2.0498   -2.3472   -0.6329 H   0  0  0  0  0  0  0  0  0  0  0  0
    2.1868   -1.6819    0.8889 H   0  0  0  0  0  0  0  0  0  0  0  0
    0.9598   -0.6122   -1.5065 H   0  0  0  0  0  0  0  0  0  0  0  0
   -0.2613   -1.9398    0.0326 H   0  0  0  0  0  0  0  0  0  0  0  0
    0.3041   -1.0280    1.4593 H   0  0  0  0  0  0  0  0  0  0  0  0
   -0.9507    1.4886    1.7657 H   0  0  0  0  0  0  0  0  0  0  0  0
   -3.8903    0.9002   -1.1452 H   0  0  0  0  0  0  0  0  0  0  0  0
   -2.1672   -0.9584   -1.4115 H   0  0  0  0  0  0  0  0  0  0  0  0
    3.3388    2.0214    0.2936 H   0  0  0  0  0  0  0  0  0  0  0  0
  1  2  1  0
  2  3  1  0
  3  4  1  0
  4  5  2  0
  5  6  1  0
  6  7  2  0
  7  8  1  0
  2  9  1  0
  9 10  2  0
  9 11  1  0
  8  4  1  0
  1 12  1  0
  1 13  1  0
  2 14  1  6
  3 15  1  0
  3 16  1  0
  5 17  1  0
  7 18  1  0
  8 19  1  0
 11 20  1  0
M  END
$$$$

     RDKit          3D

 20 20  0  0  0  0  0  0  0  0999 V2000
   -2.4324    1.1048   -0.4959 N   0  0  0  0  0  0  0  0  0  0  0  0
   -1.3123    0.1364   -0.4378 C   0  0  1  0  0  0  0  0  0  0  0  0
   -0.0331    0.8809   -0.2355 C   0  0  0  0  0  0  0  0  0  0  0  0
    1.1889    0.1062   -0.2016 C   0  0  0  0  0  0  0  0  0  0  0  0
    2.4260    0.6591    0.1515 C   0  0  0  0  0  0  0  0  0  0  0  0
    3.3404   -0.2913    0.0536 N   0  0  0  0  0  0  0  0  0  0  0  0
    2.7736   -1.4228   -0.3403 C   0  0  0  0  0  0  0  0  0  0  0  0
    1.4524   -1.1666   -0.4943 N   0  0  0  0  0  0  0  0  0  0  0  0
   -1.5559   -0.6400    0.8236 C   0  0  0  0  0  0  0  0  0  0  0  0
   -0.7899   -1.5264    1.2654 O   0  0  0  0  0  0  0  0  0  0  0  0
   -2.7105   -0.3565    1.5515 O   0  0  0  0  0  0  0  0  0  0  0  0
   -2.1311    1.9595    0.0225 H   0  0  0  0  0  0  0  0  0  0  0  0
   -2.6231    1.3805   -1.4792 H   0  0  0  0  0  0  0  0  0  0  0  0
   -1.3162   -0.5210   -1.3037 H   0  0  0  0  0  0  0  0  0  0  0  0
   -0.1036    1.5538    0.6685 H   0  0  0  0  0  0  0  0  0  0  0  0
    0.0294    1.6197   -1.0901 H   0  0  0  0  0  0  0  0  0  0  0  0
    2.6282    1.6821    0.4554 H   0  0  0  0  0  0  0  0  0  0  0  0
    3.2816   -2.3645   -0.5037 H   0  0  0  0  0  0  0  0  0  0  0  0
    0.7962   -1.8928   -0.8107 H   0  0  0  0  0  0  0  0  0  0  0  0
   -2.9087   -0.9012    2.4008 H   0  0  0  0  0  0  0  0  0  0  0  0
  1  2  1  0
  2  3  1  0
  3  4  1  0
  4  5  2  0
  5  6  1  0
  6  7  2  0
  7  8  1  0
  2  9  1  0
  9 10  2  0
  9 11  1  0
  8  4  1  0
  1 12  1  0
  1 13  1  0
  2 14  1  6
  3 15  1  0
  3 16  1  0
  5 17  1  0
  7 18  1  0
  8 19  1  0
 11 20  1  0
M  END
$$$$

     RDKit          3D

 20 20  0  0  0  0  0  0  0  0999 V2000
   -2.4100    0.5399   -0.9950 N   0  0  0  0  0  0  0  0  0  0  0  0
   -1.1959   -0.1816   -0.6831 C   0  0  1  0  0  0  0  0  0  0  0  0
   -0.1631    0.8615   -0.3980 C   0  0  0  0  0  0  0  0  0  0  0  0
    1.1838    0.3798   -0.0976 C   0  0  0  0  0  0  0  0  0  0  0  0
    2.1833    1.2388    0.3388 C   0  0  0  0  0  0  0  0  0  0  0  0
    3.3098    0.5693    0.5119 N   0  0  0  0  0  0  0  0  0  0  0  0
    3.0555   -0.6979    0.1964 C   0  0  0  0  0  0  0  0  0  0  0  0
    1.7588   -0.8269   -0.1785 N   0  0  0  0  0  0  0  0  0  0  0  0
   -1.4755   -0.8631    0.6317 C   0  0  0  0  0  0  0  0  0  0  0  0
   -0.6680   -1.5605    1.2554 O   0  0  0  0  0  0  0  0  0  0  0  0
   -2.7516   -0.6993    1.2020 O   0  0  0  0  0  0  0  0  0  0  0  0
   -3.2601   -0.0349   -0.9678 H   0  0  0  0  0  0  0  0  0  0  0  0
   -2.3216    1.1886   -1.7834 H   0  0  0  0  0  0  0  0  0  0  0  0
   -0.8990   -0.9315   -1.4164 H   0  0  0  0  0  0  0  0  0  0  0  0
   -0.4746    1.5188    0.4397 H   0  0  0  0  0  0  0  0  0  0  0  0
   -0.0769    1.5627   -1.2804 H   0  0  0  0  0  0  0  0  0  0  0  0
    2.0904    2.3096    0.5223 H   0  0  0  0  0  0  0  0  0  0  0  0
    3.7748   -1.5109    0.2319 H   0  0  0  0  0  0  0  0  0  0  0  0
    1.3208   -1.7024   -0.4804 H   0  0  0  0  0  0  0  0  0  0  0  0
   -2.9809   -1.1601    2.0856 H   0  0  0  0  0  0  0  0  0  0  0  0
  1  2  1  0
  2  3  1  0
  3  4  1  0
  4  5  2  0
  5  6  1  0
  6  7  2  0
  7  8  1  0
  2  9  1  0
  9 10  2  0
  9 11  1  0
  8  4  1  0
  1 12  1  0
  1 13  1  0
  2 14  1  6
  3 15  1  0
  3 16  1  0
  5 17  1  0
  7 18  1  0
  8 19  1  0
 11 20  1  0
M  END
$$$$

     RDKit          3D

 20 20  0  0  0  0  0  0  0  0999 V2000
   -2.1835   -1.1319    1.0574 N   0  0  0  0  0  0  0  0  0  0  0  0
   -1.0149   -0.2120    0.9477 C   0  0  1  0  0  0  0  0  0  0  0  0
   -0.1469   -0.8561   -0.0628 C   0  0  0  0  0  0  0  0  0  0  0  0
    1.1225   -0.2387   -0.3931 C   0  0  0  0  0  0  0  0  0  0  0  0
    1.8935   -0.7572   -1.4478 C   0  0  0  0  0  0  0  0  0  0  0  0
    3.0034   -0.0485   -1.5381 N   0  0  0  0  0  0  0  0  0  0  0  0
    3.0103    0.9009   -0.6107 C   0  0  0  0  0  0  0  0  0  0  0  0
    1.8426    0.7671    0.0853 N   0  0  0  0  0  0  0  0  0  0  0  0
   -1.5986    1.0690    0.5161 C   0  0  0  0  0  0  0  0  0  0  0  0
   -0.9097    2.0832    0.3141 O   0  0  0  0  0  0  0  0  0  0  0  0
   -2.9553    1.1823    0.3196 O   0  0  0  0  0  0  0  0  0  0  0  0
   -1.7709   -2.0902    1.1342 H   0  0  0  0  0  0  0  0  0  0  0  0
   -2.6187   -1.0895    0.1045 H   0  0  0  0  0  0  0  0  0  0  0  0
   -0.6049   -0.1505    1.9581 H   0  0  0  0  0  0  0  0  0  0  0  0
    0.0523   -1.9051    0.2942 H   0  0  0  0  0  0  0  0  0  0  0  0
   -0.7562   -0.9550   -1.0052 H   0  0  0  0  0  0  0  0  0  0  0  0
    1.6532   -1.5952   -2.1003 H   0  0  0  0  0  0  0  0  0  0  0  0
    3.8013    1.6111   -0.4738 H   0  0  0  0  0  0  0  0  0  0  0  0
    1.5730    1.3601    0.8769 H   0  0  0  0  0  0  0  0  0  0  0  0
   -3.3926    2.0562    0.0238 H   0  0  0  0  0  0  0  0  0  0  0  0
  1  2  1  0
  2  3  1  0
  3  4  1  0
  4  5  2  0
  5  6  1  0
  6  7  2  0
  7  8  1  0
  2  9  1  0
  9 10  2  0
  9 11  1  0
  8  4  1  0
  1 12  1  0
  1 13  1  0
  2 14  1  1
  3 15  1  0
  3 16  1  0
  5 17  1  0
  7 18  1  0
  8 19  1  0
 11 20  1  0
M  END
$$$$

     RDKit          3D

 20 20  0  0  0  0  0  0  0  0999 V2000
   -1.2072   -1.4717   -0.3161 N   0  0  0  0  0  0  0  0  0  0  0  0
   -1.2418   -0.1705    0.3155 C   0  0  1  0  0  0  0  0  0  0  0  0
   -0.0977    0.6626   -0.2007 C   0  0  0  0  0  0  0  0  0  0  0  0
    1.2194    0.0517    0.0802 C   0  0  0  0  0  0  0  0  0  0  0  0
    1.5543   -1.1065    0.7107 C   0  0  0  0  0  0  0  0  0  0  0  0
    2.8918   -1.2229    0.7151 N   0  0  0  0  0  0  0  0  0  0  0  0
    3.4067   -0.1665    0.1031 C   0  0  0  0  0  0  0  0  0  0  0  0
    2.3826    0.6110   -0.2841 N   0  0  0  0  0  0  0  0  0  0  0  0
   -2.4956    0.4954   -0.0918 C   0  0  0  0  0  0  0  0  0  0  0  0
   -3.2823   -0.1050   -0.8578 O   0  0  0  0  0  0  0  0  0  0  0  0
   -2.8237    1.7819    0.3591 O   0  0  0  0  0  0  0  0  0  0  0  0
   -1.4339   -2.2476    0.3416 H   0  0  0  0  0  0  0  0  0  0  0  0
   -1.7478   -1.4871   -1.1875 H   0  0  0  0  0  0  0  0  0  0  0  0
   -1.2277   -0.2710    1.4199 H   0  0  0  0  0  0  0  0  0  0  0  0
   -0.1257    1.6916    0.2129 H   0  0  0  0  0  0  0  0  0  0  0  0
   -0.1973    0.7536   -1.2995 H   0  0  0  0  0  0  0  0  0  0  0  0
    0.8345   -1.7950    1.1269 H   0  0  0  0  0  0  0  0  0  0  0  0
    4.4623    0.0866   -0.0858 H   0  0  0  0  0  0  0  0  0  0  0  0
    2.4794    1.5283   -0.7997 H   0  0  0  0  0  0  0  0  0  0  0  0
   -3.3503    2.3809   -0.2620 H   0  0  0  0  0  0  0  0  0  0  0  0
  1  2  1  0
  2  3  1  0
  3  4  1  0
  4  5  2  0
  5  6  1  0
  6  7  2  0
  7  8  1  0
  2  9  1  0
  9 10  2  0
  9 11  1  0
  8  4  1  0
  1 12  1  0
  1 13  1  0
  2 14  1  1
  3 15  1  0
  3 16  1  0
  5 17  1  0
  7 18  1  0
  8 19  1  0
 11 20  1  0
M  END
$$$$

     RDKit          3D

 20 20  0  0  0  0  0  0  0  0999 V2000
    2.3649    1.0669   -0.5334 N   0  0  0  0  0  0  0  0  0  0  0  0
    1.1732    0.7159    0.2022 C   0  0  1  0  0  0  0  0  0  0  0  0
    0.1602    0.3381   -0.8343 C   0  0  0  0  0  0  0  0  0  0  0  0
   -1.1717   -0.0115   -0.3468 C   0  0  0  0  0  0  0  0  0  0  0  0
   -2.1177   -0.5714   -1.2226 C   0  0  0  0  0  0  0  0  0  0  0  0
   -3.2461   -0.7688   -0.5638 N   0  0  0  0  0  0  0  0  0  0  0  0
   -3.0471   -0.3543    0.6933 C   0  0  0  0  0  0  0  0  0  0  0  0
   -1.7842    0.1059    0.8202 N   0  0  0  0  0  0  0  0  0  0  0  0
    1.5191   -0.5279    0.9402 C   0  0  0  0  0  0  0  0  0  0  0  0
    0.6964   -1.1244    1.6507 O   0  0  0  0  0  0  0  0  0  0  0  0
    2.7928   -1.0519    0.8441 O   0  0  0  0  0  0  0  0  0  0  0  0
    2.7326    2.0017   -0.3426 H   0  0  0  0  0  0  0  0  0  0  0  0
    2.4367    0.6930   -1.4642 H   0  0  0  0  0  0  0  0  0  0  0  0
    0.8923    1.5391    0.8570 H   0  0  0  0  0  0  0  0  0  0  0  0
    0.5681   -0.5781   -1.3522 H   0  0  0  0  0  0  0  0  0  0  0  0
    0.1001    1.1254   -1.6187 H   0  0  0  0  0  0  0  0  0  0  0  0
   -1.9873   -0.8161   -2.2674 H   0  0  0  0  0  0  0  0  0  0  0  0
   -3.7938   -0.3836    1.4967 H   0  0  0  0  0  0  0  0  0  0  0  0
   -1.3576    0.5068    1.6888 H   0  0  0  0  0  0  0  0  0  0  0  0
    3.0691   -1.9048    1.3530 H   0  0  0  0  0  0  0  0  0  0  0  0
  1  2  1  0
  2  3  1  0
  3  4  1  0
  4  5  2  0
  5  6  1  0
  6  7  2  0
  7  8  1  0
  2  9  1  0
  9 10  2  0
  9 11  1  0
  8  4  1  0
  1 12  1  0
  1 13  1  0
  2 14  1  1
  3 15  1  0
  3 16  1  0
  5 17  1  0
  7 18  1  0
  8 19  1  0
 11 20  1  0
M  END
$$$$

     RDKit          3D

 20 20  0  0  0  0  0  0  0  0999 V2000
    1.0915   -0.8351    1.4819 N   0  0  0  0  0  0  0  0  0  0  0  0
    1.2600   -0.9713    0.0542 C   0  0  1  0  0  0  0  0  0  0  0  0
   -0.0947   -1.3159   -0.5304 C   0  0  0  0  0  0  0  0  0  0  0  0
   -1.0879   -0.2519   -0.2428 C   0  0  0  0  0  0  0  0  0  0  0  0
   -1.9317   -0.1555    0.8625 C   0  0  0  0  0  0  0  0  0  0  0  0
   -2.6747    0.9407    0.7574 N   0  0  0  0  0  0  0  0  0  0  0  0
   -2.3481    1.5655   -0.3762 C   0  0  0  0  0  0  0  0  0  0  0  0
   -1.3876    0.8459   -0.9841 N   0  0  0  0  0  0  0  0  0  0  0  0
    1.8292    0.2625   -0.5301 C   0  0  0  0  0  0  0  0  0  0  0  0
    2.0431    0.3198   -1.7636 O   0  0  0  0  0  0  0  0  0  0  0  0
    2.1412    1.3719    0.2314 O   0  0  0  0  0  0  0  0  0  0  0  0
    1.9690   -0.5726    1.9723 H   0  0  0  0  0  0  0  0  0  0  0  0
    0.3659   -0.1665    1.7561 H   0  0  0  0  0  0  0  0  0  0  0  0
    1.9423   -1.8242   -0.1315 H   0  0  0  0  0  0  0  0  0  0  0  0
   -0.4378   -2.2330   -0.0095 H   0  0  0  0  0  0  0  0  0  0  0  0
   -0.0241   -1.5604   -1.6095 H   0  0  0  0  0  0  0  0  0  0  0  0
   -1.9105   -0.9193    1.6466 H   0  0  0  0  0  0  0  0  0  0  0  0
   -2.8005    2.4905   -0.7149 H   0  0  0  0  0  0  0  0  0  0  0  0
   -0.9071    1.0490   -1.8887 H   0  0  0  0  0  0  0  0  0  0  0  0
    2.9624    1.9600    0.0187 H   0  0  0  0  0  0  0  0  0  0  0  0
  1  2  1  0
  2  3  1  0
  3  4  1  0
  4  5  2  0
  5  6  1  0
  6  7  2  0
  7  8  1  0
  2  9  1  0
  9 10  2  0
  9 11  1  0
  8  4  1  0
  1 12  1  0
  1 13  1  0
  2 14  1  1
  3 15  1  0
  3 16  1  0
  5 17  1  0
  7 18  1  0
  8 19  1  0
 11 20  1  0
M  END
$$$$

     RDKit          3D

 20 20  0  0  0  0  0  0  0  0999 V2000
   -0.9139   -1.1650    0.9942 N   0  0  0  0  0  0  0  0  0  0  0  0
   -1.1092    0.0793    0.3109 C   0  0  1  0  0  0  0  0  0  0  0  0
   -0.2630    0.1121   -0.9260 C   0  0  0  0  0  0  0  0  0  0  0  0
    1.1856   -0.0216   -0.6230 C   0  0  0  0  0  0  0  0  0  0  0  0
    1.8595   -1.1999   -0.5513 C   0  0  0  0  0  0  0  0  0  0  0  0
    3.1496   -0.8746   -0.2538 N   0  0  0  0  0  0  0  0  0  0  0  0
    3.2604    0.4468   -0.1479 C   0  0  0  0  0  0  0  0  0  0  0  0
    2.0541    0.9944   -0.3732 N   0  0  0  0  0  0  0  0  0  0  0  0
   -2.5252    0.2421   -0.0868 C   0  0  0  0  0  0  0  0  0  0  0  0
   -3.4152   -0.5856    0.1413 O   0  0  0  0  0  0  0  0  0  0  0  0
   -2.8533    1.4251   -0.7676 O   0  0  0  0  0  0  0  0  0  0  0  0
   -1.7187   -1.4463    1.5936 H   0  0  0  0  0  0  0  0  0  0  0  0
   -0.6145   -1.9169    0.3379 H   0  0  0  0  0  0  0  0  0  0  0  0
   -0.8476    0.9633    0.9312 H   0  0  0  0  0  0  0  0  0  0  0  0
   -0.4270    1.0608   -1.5047 H   0  0  0  0  0  0  0  0  0  0  0  0
   -0.5453   -0.7304   -1.6182 H   0  0  0  0  0  0  0  0  0  0  0  0
    1.5371   -2.2295   -0.6845 H   0  0  0  0  0  0  0  0  0  0  0  0
    4.1616    1.0018    0.0802 H   0  0  0  0  0  0  0  0  0  0  0  0
    1.8082    2.0273   -0.3619 H   0  0  0  0  0  0  0  0  0  0  0  0
   -3.7830    1.8169   -0.7594 H   0  0  0  0  0  0  0  0  0  0  0  0
  1  2  1  0
  2  3  1  0
  3  4  1  0
  4  5  2  0
  5  6  1  0
  6  7  2  0
  7  8  1  0
  2  9  1  0
  9 10  2  0
  9 11  1  0
  8  4  1  0
  1 12  1  0
  1 13  1  0
  2 14  1  1
  3 15  1  0
  3 16  1  0
  5 17  1  0
  7 18  1  0
  8 19  1  0
 11 20  1  0
M  END
$$$$

     RDKit          3D

 20 20  0  0  0  0  0  0  0  0999 V2000
   -0.8337    1.5974   -0.2993 N   0  0  0  0  0  0  0  0  0  0  0  0
   -1.1681    0.2162   -0.4793 C   0  0  1  0  0  0  0  0  0  0  0  0
   -0.2310   -0.5942    0.4084 C   0  0  0  0  0  0  0  0  0  0  0  0
    1.1829   -0.3952    0.0690 C   0  0  0  0  0  0  0  0  0  0  0  0
    1.9196   -1.1439   -0.8491 C   0  0  0  0  0  0  0  0  0  0  0  0
    3.1782   -0.6725   -0.8953 N   0  0  0  0  0  0  0  0  0  0  0  0
    3.2620    0.3520   -0.0350 C   0  0  0  0  0  0  0  0  0  0  0  0
    2.0440    0.5098    0.5437 N   0  0  0  0  0  0  0  0  0  0  0  0
   -2.5422   -0.0499    0.0036 C   0  0  0  0  0  0  0  0  0  0  0  0
   -3.2193    0.8813    0.4816 O   0  0  0  0  0  0  0  0  0  0  0  0
   -3.0660   -1.3278   -0.0782 O   0  0  0  0  0  0  0  0  0  0  0  0
   -1.5974    2.2541   -0.5713 H   0  0  0  0  0  0  0  0  0  0  0  0
   -0.4247    1.8085    0.6241 H   0  0  0  0  0  0  0  0  0  0  0  0
   -1.0870   -0.0665   -1.5281 H   0  0  0  0  0  0  0  0  0  0  0  0
   -0.4196   -0.3538    1.4742 H   0  0  0  0  0  0  0  0  0  0  0  0
   -0.4523   -1.6858    0.3033 H   0  0  0  0  0  0  0  0  0  0  0  0
    1.5327   -1.9657   -1.4234 H   0  0  0  0  0  0  0  0  0  0  0  0
    4.1368    0.9500    0.1680 H   0  0  0  0  0  0  0  0  0  0  0  0
    1.8188    1.2351    1.2560 H   0  0  0  0  0  0  0  0  0  0  0  0
   -4.0337   -1.5490    0.1686 H   0  0  0  0  0  0  0  0  0  0  0  0
  1  2  1  0
  2  3  1  0
  3  4  1  0
  4  5  2  0
  5  6  1  0
  6  7  2  0
  7  8  1  0
  2  9  1  0
  9 10  2  0
  9 11  1  0
  8  4  1  0
  1 12  1  0
  1 13  1  0
  2 14  1  6
  3 15  1  0
  3 16  1  0
  5 17  1  0
  7 18  1  0
  8 19  1  0
 11 20  1  0
M  END
$$$$

     RDKit          3D

 20 20  0  0  0  0  0  0  0  0999 V2000
   -2.1901   -1.6753    0.0109 N   0  0  0  0  0  0  0  0  0  0  0  0
   -1.1907   -0.6850    0.3252 C   0  0  1  0  0  0  0  0  0  0  0  0
    0.1014   -1.0193   -0.3434 C   0  0  0  0  0  0  0  0  0  0  0  0
    1.1891   -0.0693   -0.0868 C   0  0  0  0  0  0  0  0  0  0  0  0
    2.0833   -0.1631    0.9616 C   0  0  0  0  0  0  0  0  0  0  0  0
    2.9216    0.8790    0.8598 N   0  0  0  0  0  0  0  0  0  0  0  0
    2.5830    1.6180   -0.2124 C   0  0  0  0  0  0  0  0  0  0  0  0
    1.5186    1.0190   -0.7783 N   0  0  0  0  0  0  0  0  0  0  0  0
   -1.6372    0.6881    0.0772 C   0  0  0  0  0  0  0  0  0  0  0  0
   -0.8385    1.6287    0.3297 O   0  0  0  0  0  0  0  0  0  0  0  0
   -2.8810    1.0411   -0.4184 O   0  0  0  0  0  0  0  0  0  0  0  0
   -1.8381   -2.5919    0.3787 H   0  0  0  0  0  0  0  0  0  0  0  0
   -2.3289   -1.7885   -1.0242 H   0  0  0  0  0  0  0  0  0  0  0  0
   -1.0111   -0.7707    1.4373 H   0  0  0  0  0  0  0  0  0  0  0  0
   -0.0947   -1.0265   -1.4508 H   0  0  0  0  0  0  0  0  0  0  0  0
    0.3878   -2.0569   -0.0929 H   0  0  0  0  0  0  0  0  0  0  0  0
    2.1076   -0.9427    1.7358 H   0  0  0  0  0  0  0  0  0  0  0  0
    3.0924    2.5199   -0.5322 H   0  0  0  0  0  0  0  0  0  0  0  0
    1.0604    1.4080   -1.6433 H   0  0  0  0  0  0  0  0  0  0  0  0
   -3.0350    1.9874   -0.7952 H   0  0  0  0  0  0  0  0  0  0  0  0
  1  2  1  0
  2  3  1  0
  3  4  1  0
  4  5  2  0
  5  6  1  0
  6  7  2  0
  7  8  1  0
  2  9  1  0
  9 10  2  0
  9 11  1  0
  8  4  1  0
  1 12  1  0
  1 13  1  0
  2 14  1  1
  3 15  1  0
  3 16  1  0
  5 17  1  0
  7 18  1  0
  8 19  1  0
 11 20  1  0
M  END
$$$$

     RDKit          3D

 20 20  0  0  0  0  0  0  0  0999 V2000
    2.0353   -1.7421   -0.7864 N   0  0  0  0  0  0  0  0  0  0  0  0
    0.9342   -0.7414   -0.8401 C   0  0  1  0  0  0  0  0  0  0  0  0
    0.1639   -0.9382    0.4149 C   0  0  0  0  0  0  0  0  0  0  0  0
   -1.0230   -0.0974    0.5817 C   0  0  0  0  0  0  0  0  0  0  0  0
   -1.7188   -0.0397    1.7928 C   0  0  0  0  0  0  0  0  0  0  0  0
   -2.7537    0.7720    1.6130 N   0  0  0  0  0  0  0  0  0  0  0  0
   -2.7357    1.2211    0.3509 C   0  0  0  0  0  0  0  0  0  0  0  0
   -1.6642    0.6841   -0.2927 N   0  0  0  0  0  0  0  0  0  0  0  0
    1.6110    0.5985   -0.8348 C   0  0  0  0  0  0  0  0  0  0  0  0
    2.8828    0.6101   -0.8445 O   0  0  0  0  0  0  0  0  0  0  0  0
    0.9810    1.8056   -0.8198 O   0  0  0  0  0  0  0  0  0  0  0  0
    2.3050   -1.8807    0.1950 H   0  0  0  0  0  0  0  0  0  0  0  0
    2.8128   -1.3621   -1.3708 H   0  0  0  0  0  0  0  0  0  0  0  0
    0.3819   -0.9299   -1.7570 H   0  0  0  0  0  0  0  0  0  0  0  0
    0.8866   -0.8041    1.2669 H   0  0  0  0  0  0  0  0  0  0  0  0
   -0.1896   -2.0063    0.4704 H   0  0  0  0  0  0  0  0  0  0  0  0
   -1.4348   -0.5758    2.6974 H   0  0  0  0  0  0  0  0  0  0  0  0
   -3.4420    1.8981   -0.1067 H   0  0  0  0  0  0  0  0  0  0  0  0
   -1.4295    0.8582   -1.2818 H   0  0  0  0  0  0  0  0  0  0  0  0
    1.3968    2.6700   -0.4484 H   0  0  0  0  0  0  0  0  0  0  0  0
  1  2  1  0
  2  3  1  0
  3  4  1  0
  4  5  2  0
  5  6  1  0
  6  7  2  0
  7  8  1  0
  2  9  1  0
  9 10  2  0
  9 11  1  0
  8  4  1  0
  1 12  1  0
  1 13  1  0
  2 14  1  6
  3 15  1  0
  3 16  1  0
  5 17  1  0
  7 18  1  0
  8 19  1  0
 11 20  1  0
M  END
$$$$

     RDKit          3D

 20 20  0  0  0  0  0  0  0  0999 V2000
   -2.5944   -1.1321   -0.0006 N   0  0  0  0  0  0  0  0  0  0  0  0
   -1.4026   -0.3646    0.3024 C   0  0  1  0  0  0  0  0  0  0  0  0
   -0.2084   -1.0439   -0.3436 C   0  0  0  0  0  0  0  0  0  0  0  0
    1.0573   -0.3407   -0.0958 C   0  0  0  0  0  0  0  0  0  0  0  0
    1.9090   -0.5735    0.9898 C   0  0  0  0  0  0  0  0  0  0  0  0
    2.9776    0.2396    0.9108 N   0  0  0  0  0  0  0  0  0  0  0  0
    2.8001    0.9643   -0.1972 C   0  0  0  0  0  0  0  0  0  0  0  0
    1.6539    0.6316   -0.8158 N   0  0  0  0  0  0  0  0  0  0  0  0
   -1.5827    1.0280   -0.1086 C   0  0  0  0  0  0  0  0  0  0  0  0
   -2.6527    1.3962   -0.6454 O   0  0  0  0  0  0  0  0  0  0  0  0
   -0.5863    1.9648    0.0830 O   0  0  0  0  0  0  0  0  0  0  0  0
   -2.4223   -1.7265   -0.8453 H   0  0  0  0  0  0  0  0  0  0  0  0
   -2.9187   -1.7139    0.7904 H   0  0  0  0  0  0  0  0  0  0  0  0
   -1.2294   -0.4432    1.4067 H   0  0  0  0  0  0  0  0  0  0  0  0
   -0.3934   -1.2330   -1.4304 H   0  0  0  0  0  0  0  0  0  0  0  0
   -0.1438   -2.0582    0.1228 H   0  0  0  0  0  0  0  0  0  0  0  0
    1.7185   -1.3035    1.7669 H   0  0  0  0  0  0  0  0  0  0  0  0
    3.5344    1.7197   -0.5079 H   0  0  0  0  0  0  0  0  0  0  0  0
    1.2963    1.0552   -1.6975 H   0  0  0  0  0  0  0  0  0  0  0  0
   -0.8126    2.9338    0.3151 H   0  0  0  0  0  0  0  0  0  0  0  0
  1  2  1  0
  2  3  1  0
  3  4  1  0
  4  5  2  0
  5  6  1  0
  6  7  2  0
  7  8  1  0
  2  9  1  0
  9 10  2  0
  9 11  1  0
  8  4  1  0
  1 12  1  0
  1 13  1  0
  2 14  1  1
  3 15  1  0
  3 16  1  0
  5 17  1  0
  7 18  1  0
  8 19  1  0
 11 20  1  0
M  END
$$$$

     RDKit          3D

 20 20  0  0  0  0  0  0  0  0999 V2000
   -2.2870    1.4300    0.4630 N   0  0  0  0  0  0  0  0  0  0  0  0
   -1.1165    0.7368   -0.0978 C   0  0  1  0  0  0  0  0  0  0  0  0
   -0.0849    0.5358    0.9623 C   0  0  0  0  0  0  0  0  0  0  0  0
    1.1053   -0.1558    0.4390 C   0  0  0  0  0  0  0  0  0  0  0  0
    1.3746   -1.5200    0.3997 C   0  0  0  0  0  0  0  0  0  0  0  0
    2.5626   -1.7310   -0.1558 N   0  0  0  0  0  0  0  0  0  0  0  0
    3.0866   -0.5585   -0.4841 C   0  0  0  0  0  0  0  0  0  0  0  0
    2.2155    0.4007   -0.1297 N   0  0  0  0  0  0  0  0  0  0  0  0
   -1.5400   -0.5345   -0.7239 C   0  0  0  0  0  0  0  0  0  0  0  0
   -0.7328   -1.2794   -1.3236 O   0  0  0  0  0  0  0  0  0  0  0  0
   -2.8937   -0.9082   -0.6367 O   0  0  0  0  0  0  0  0  0  0  0  0
   -2.2972    2.4327    0.1764 H   0  0  0  0  0  0  0  0  0  0  0  0
   -2.2341    1.3161    1.5011 H   0  0  0  0  0  0  0  0  0  0  0  0
   -0.7185    1.4012   -0.8989 H   0  0  0  0  0  0  0  0  0  0  0  0
   -0.5485   -0.0864    1.7790 H   0  0  0  0  0  0  0  0  0  0  0  0
    0.2352    1.5204    1.3675 H   0  0  0  0  0  0  0  0  0  0  0  0
    0.7086   -2.3066    0.7719 H   0  0  0  0  0  0  0  0  0  0  0  0
    4.0489   -0.4244   -0.9541 H   0  0  0  0  0  0  0  0  0  0  0  0
    2.2964    1.4346   -0.2366 H   0  0  0  0  0  0  0  0  0  0  0  0
   -3.1802   -1.7037   -1.2211 H   0  0  0  0  0  0  0  0  0  0  0  0
  1  2  1  0
  2  3  1  0
  3  4  1  0
  4  5  2  0
  5  6  1  0
  6  7  2  0
  7  8  1  0
  2  9  1  0
  9 10  2  0
  9 11  1  0
  8  4  1  0
  1 12  1  0
  1 13  1  0
  2 14  1  6
  3 15  1  0
  3 16  1  0
  5 17  1  0
  7 18  1  0
  8 19  1  0
 11 20  1  0
M  END
$$$$

     RDKit          3D

 20 20  0  0  0  0  0  0  0  0999 V2000
    0.6134   -1.4748    1.0276 N   0  0  0  0  0  0  0  0  0  0  0  0
    0.9307   -0.8206   -0.2203 C   0  0  1  0  0  0  0  0  0  0  0  0
    0.4254    0.6010   -0.1773 C   0  0  0  0  0  0  0  0  0  0  0  0
   -1.0314    0.6787    0.0180 C   0  0  0  0  0  0  0  0  0  0  0  0
   -1.7036    1.8887    0.0940 C   0  0  0  0  0  0  0  0  0  0  0  0
   -3.0011    1.6484    0.2704 N   0  0  0  0  0  0  0  0  0  0  0  0
   -3.1960    0.3118    0.3120 C   0  0  0  0  0  0  0  0  0  0  0  0
   -1.9684   -0.2561    0.1542 N   0  0  0  0  0  0  0  0  0  0  0  0
    2.4001   -0.8611   -0.4001 C   0  0  0  0  0  0  0  0  0  0  0  0
    3.1500   -1.4010    0.4550 O   0  0  0  0  0  0  0  0  0  0  0  0
    3.0376   -0.3147   -1.5065 O   0  0  0  0  0  0  0  0  0  0  0  0
    0.0289   -0.8345    1.6308 H   0  0  0  0  0  0  0  0  0  0  0  0
    1.4975   -1.6393    1.5519 H   0  0  0  0  0  0  0  0  0  0  0  0
    0.4907   -1.3893   -1.0723 H   0  0  0  0  0  0  0  0  0  0  0  0
    0.6737    1.0782   -1.1556 H   0  0  0  0  0  0  0  0  0  0  0  0
    0.9383    1.1665    0.6091 H   0  0  0  0  0  0  0  0  0  0  0  0
   -1.2777    2.8882    0.0254 H   0  0  0  0  0  0  0  0  0  0  0  0
   -4.1409   -0.1814    0.4441 H   0  0  0  0  0  0  0  0  0  0  0  0
   -1.7965   -1.2651    0.1423 H   0  0  0  0  0  0  0  0  0  0  0  0
    3.9294    0.1764   -1.3616 H   0  0  0  0  0  0  0  0  0  0  0  0
  1  2  1  0
  2  3  1  0
  3  4  1  0
  4  5  2  0
  5  6  1  0
  6  7  2  0
  7  8  1  0
  2  9  1  0
  9 10  2  0
  9 11  1  0
  8  4  1  0
  1 12  1  0
  1 13  1  0
  2 14  1  6
  3 15  1  0
  3 16  1  0
  5 17  1  0
  7 18  1  0
  8 19  1  0
 11 20  1  0
M  END
$$$$

     RDKit          3D

 20 20  0  0  0  0  0  0  0  0999 V2000
   -1.9685   -1.9055    0.5152 N   0  0  0  0  0  0  0  0  0  0  0  0
   -1.0053   -0.8221    0.5901 C   0  0  1  0  0  0  0  0  0  0  0  0
   -0.0956   -0.9342   -0.6094 C   0  0  0  0  0  0  0  0  0  0  0  0
    0.9057    0.1611   -0.5675 C   0  0  0  0  0  0  0  0  0  0  0  0
    0.8360    1.4182   -1.1197 C   0  0  0  0  0  0  0  0  0  0  0  0
    1.9825    2.0398   -0.8058 N   0  0  0  0  0  0  0  0  0  0  0  0
    2.7522    1.2160   -0.0842 C   0  0  0  0  0  0  0  0  0  0  0  0
    2.0981    0.0522    0.0698 N   0  0  0  0  0  0  0  0  0  0  0  0
   -1.7347    0.4497    0.6804 C   0  0  0  0  0  0  0  0  0  0  0  0
   -2.9914    0.4276    0.6307 O   0  0  0  0  0  0  0  0  0  0  0  0
   -1.0942    1.6827    0.8198 O   0  0  0  0  0  0  0  0  0  0  0  0
   -1.7750   -2.5748    1.2832 H   0  0  0  0  0  0  0  0  0  0  0  0
   -1.9420   -2.3796   -0.4182 H   0  0  0  0  0  0  0  0  0  0  0  0
   -0.3805   -0.9230    1.5263 H   0  0  0  0  0  0  0  0  0  0  0  0
   -0.6563   -0.9144   -1.5628 H   0  0  0  0  0  0  0  0  0  0  0  0
    0.4565   -1.8922   -0.5637 H   0  0  0  0  0  0  0  0  0  0  0  0
   -0.0076    1.7857   -1.6922 H   0  0  0  0  0  0  0  0  0  0  0  0
    3.7356    1.4330    0.3151 H   0  0  0  0  0  0  0  0  0  0  0  0
    2.4518   -0.7970    0.5952 H   0  0  0  0  0  0  0  0  0  0  0  0
   -1.5675    2.4765    0.3977 H   0  0  0  0  0  0  0  0  0  0  0  0
  1  2  1  0
  2  3  1  0
  3  4  1  0
  4  5  2  0
  5  6  1  0
  6  7  2  0
  7  8  1  0
  2  9  1  0
  9 10  2  0
  9 11  1  0
  8  4  1  0
  1 12  1  0
  1 13  1  0
  2 14  1  1
  3 15  1  0
  3 16  1  0
  5 17  1  0
  7 18  1  0
  8 19  1  0
 11 20  1  0
M  END
$$$$

     RDKit          3D

 20 20  0  0  0  0  0  0  0  0999 V2000
    2.3074   -1.3221   -0.2018 N   0  0  0  0  0  0  0  0  0  0  0  0
    1.2125   -0.4054   -0.6028 C   0  0  1  0  0  0  0  0  0  0  0  0
   -0.0167   -0.9761    0.0122 C   0  0  0  0  0  0  0  0  0  0  0  0
   -1.2768   -0.2759   -0.2725 C   0  0  0  0  0  0  0  0  0  0  0  0
   -2.4711   -0.6124    0.3854 C   0  0  0  0  0  0  0  0  0  0  0  0
   -3.4388    0.1774   -0.1101 N   0  0  0  0  0  0  0  0  0  0  0  0
   -2.9428    0.9966   -1.0416 C   0  0  0  0  0  0  0  0  0  0  0  0
   -1.6140    0.6958   -1.1207 N   0  0  0  0  0  0  0  0  0  0  0  0
    1.5855    0.8991    0.0134 C   0  0  0  0  0  0  0  0  0  0  0  0
    0.8966    1.9447   -0.0541 O   0  0  0  0  0  0  0  0  0  0  0  0
    2.7742    0.9995    0.7197 O   0  0  0  0  0  0  0  0  0  0  0  0
    2.4004   -1.2050    0.8475 H   0  0  0  0  0  0  0  0  0  0  0  0
    3.1753   -0.9278   -0.6678 H   0  0  0  0  0  0  0  0  0  0  0  0
    1.2190   -0.3426   -1.6887 H   0  0  0  0  0  0  0  0  0  0  0  0
   -0.1108   -2.0389   -0.2924 H   0  0  0  0  0  0  0  0  0  0  0  0
    0.1715   -1.0205    1.1254 H   0  0  0  0  0  0  0  0  0  0  0  0
   -2.5564   -1.3749    1.1475 H   0  0  0  0  0  0  0  0  0  0  0  0
   -3.4586    1.7578   -1.6349 H   0  0  0  0  0  0  0  0  0  0  0  0
   -0.9392    1.1567   -1.7759 H   0  0  0  0  0  0  0  0  0  0  0  0
    3.0829    1.8740    1.1425 H   0  0  0  0  0  0  0  0  0  0  0  0
  1  2  1  0
  2  3  1  0
  3  4  1  0
  4  5  2  0
  5  6  1  0
  6  7  2  0
  7  8  1  0
  2  9  1  0
  9 10  2  0
  9 11  1  0
  8  4  1  0
  1 12  1  0
  1 13  1  0
  2 14  1  6
  3 15  1  0
  3 16  1  0
  5 17  1  0
  7 18  1  0
  8 19  1  0
 11 20  1  0
M  END
$$$$

     RDKit          3D

 20 20  0  0  0  0  0  0  0  0999 V2000
   -2.4457   -0.8648   -0.7385 N   0  0  0  0  0  0  0  0  0  0  0  0
   -1.1987   -0.7186    0.0354 C   0  0  1  0  0  0  0  0  0  0  0  0
   -0.1710   -0.1156   -0.8675 C   0  0  0  0  0  0  0  0  0  0  0  0
    1.1636    0.0539   -0.2954 C   0  0  0  0  0  0  0  0  0  0  0  0
    1.7158   -0.4173    0.8671 C   0  0  0  0  0  0  0  0  0  0  0  0
    2.9863    0.0644    0.9238 N   0  0  0  0  0  0  0  0  0  0  0  0
    3.2063    0.8017   -0.1615 C   0  0  0  0  0  0  0  0  0  0  0  0
    2.1109    0.8054   -0.9115 N   0  0  0  0  0  0  0  0  0  0  0  0
   -1.5095    0.2928    1.0732 C   0  0  0  0  0  0  0  0  0  0  0  0
   -0.6292    0.7074    1.8379 O   0  0  0  0  0  0  0  0  0  0  0  0
   -2.7904    0.7818    1.1949 O   0  0  0  0  0  0  0  0  0  0  0  0
   -2.2516   -1.4295   -1.6038 H   0  0  0  0  0  0  0  0  0  0  0  0
   -3.1379   -1.4011   -0.1657 H   0  0  0  0  0  0  0  0  0  0  0  0
   -0.8901   -1.6770    0.4715 H   0  0  0  0  0  0  0  0  0  0  0  0
   -0.0782   -0.7652   -1.7826 H   0  0  0  0  0  0  0  0  0  0  0  0
   -0.5003    0.8879   -1.2656 H   0  0  0  0  0  0  0  0  0  0  0  0
    1.2814   -1.0650    1.6201 H   0  0  0  0  0  0  0  0  0  0  0  0
    4.1710    1.2971   -0.3359 H   0  0  0  0  0  0  0  0  0  0  0  0
    2.0355    1.3157   -1.8178 H   0  0  0  0  0  0  0  0  0  0  0  0
   -3.0681    1.4462    1.9218 H   0  0  0  0  0  0  0  0  0  0  0  0
  1  2  1  0
  2  3  1  0
  3  4  1  0
  4  5  2  0
  5  6  1  0
  6  7  2  0
  7  8  1  0
  2  9  1  0
  9 10  2  0
  9 11  1  0
  8  4  1  0
  1 12  1  0
  1 13  1  0
  2 14  1  1
  3 15  1  0
  3 16  1  0
  5 17  1  0
  7 18  1  0
  8 19  1  0
 11 20  1  0
M  END
$$$$

     RDKit          3D

 20 20  0  0  0  0  0  0  0  0999 V2000
   -0.9766   -1.2045    0.9789 N   0  0  0  0  0  0  0  0  0  0  0  0
   -1.1313    0.0434    0.3050 C   0  0  1  0  0  0  0  0  0  0  0  0
   -0.1484    0.1818   -0.8597 C   0  0  0  0  0  0  0  0  0  0  0  0
    1.2312    0.0928   -0.3171 C   0  0  0  0  0  0  0  0  0  0  0  0
    1.9642    1.1773    0.1128 C   0  0  0  0  0  0  0  0  0  0  0  0
    3.1694    0.7563    0.5438 N   0  0  0  0  0  0  0  0  0  0  0  0
    3.1755   -0.5696    0.3803 C   0  0  0  0  0  0  0  0  0  0  0  0
    2.0107   -0.9965   -0.1407 N   0  0  0  0  0  0  0  0  0  0  0  0
   -2.4866    0.3037   -0.1987 C   0  0  0  0  0  0  0  0  0  0  0  0
   -3.4310   -0.5388   -0.0313 O   0  0  0  0  0  0  0  0  0  0  0  0
   -2.7444    1.4756   -0.8627 O   0  0  0  0  0  0  0  0  0  0  0  0
   -1.2440   -1.0797    1.9904 H   0  0  0  0  0  0  0  0  0  0  0  0
   -1.5470   -1.9205    0.4965 H   0  0  0  0  0  0  0  0  0  0  0  0
   -0.9014    0.8540    1.0536 H   0  0  0  0  0  0  0  0  0  0  0  0
   -0.3296   -0.6290   -1.5813 H   0  0  0  0  0  0  0  0  0  0  0  0
   -0.2570    1.1449   -1.3585 H   0  0  0  0  0  0  0  0  0  0  0  0
    1.6384    2.2212    0.1128 H   0  0  0  0  0  0  0  0  0  0  0  0
    3.9939   -1.2405    0.6247 H   0  0  0  0  0  0  0  0  0  0  0  0
    1.6941   -1.9562   -0.3879 H   0  0  0  0  0  0  0  0  0  0  0  0
   -3.6802    1.8841   -0.8609 H   0  0  0  0  0  0  0  0  0  0  0  0
  1  2  1  0
  2  3  1  0
  3  4  1  0
  4  5  2  0
  5  6  1  0
  6  7  2  0
  7  8  1  0
  2  9  1  0
  9 10  2  0
  9 11  1  0
  8  4  1  0
  1 12  1  0
  1 13  1  0
  2 14  1  1
  3 15  1  0
  3 16  1  0
  5 17  1  0
  7 18  1  0
  8 19  1  0
 11 20  1  0
M  END
$$$$

     RDKit          3D

 20 20  0  0  0  0  0  0  0  0999 V2000
   -1.0004    0.7920   -1.0756 N   0  0  0  0  0  0  0  0  0  0  0  0
   -1.0740   -0.3263   -0.2056 C   0  0  1  0  0  0  0  0  0  0  0  0
   -0.1117   -0.1205    0.9556 C   0  0  0  0  0  0  0  0  0  0  0  0
    1.2686    0.0146    0.4344 C   0  0  0  0  0  0  0  0  0  0  0  0
    2.3689    0.2127    1.2523 C   0  0  0  0  0  0  0  0  0  0  0  0
    3.4337    0.2859    0.4273 N   0  0  0  0  0  0  0  0  0  0  0  0
    3.0596    0.1453   -0.8504 C   0  0  0  0  0  0  0  0  0  0  0  0
    1.7194   -0.0206   -0.8178 N   0  0  0  0  0  0  0  0  0  0  0  0
   -2.4251   -0.6532    0.2599 C   0  0  0  0  0  0  0  0  0  0  0  0
   -2.6406   -1.6181    1.0347 O   0  0  0  0  0  0  0  0  0  0  0  0
   -3.5006    0.1112   -0.1561 O   0  0  0  0  0  0  0  0  0  0  0  0
   -1.2354    0.6173   -2.0618 H   0  0  0  0  0  0  0  0  0  0  0  0
   -1.2809    1.6911   -0.6856 H   0  0  0  0  0  0  0  0  0  0  0  0
   -0.6922   -1.2217   -0.7758 H   0  0  0  0  0  0  0  0  0  0  0  0
   -0.3470    0.8232    1.4933 H   0  0  0  0  0  0  0  0  0  0  0  0
   -0.2016   -0.9361    1.7119 H   0  0  0  0  0  0  0  0  0  0  0  0
    2.3459    0.2892    2.3352 H   0  0  0  0  0  0  0  0  0  0  0  0
    3.6759    0.1576   -1.7385 H   0  0  0  0  0  0  0  0  0  0  0  0
    1.0999   -0.1605   -1.6649 H   0  0  0  0  0  0  0  0  0  0  0  0
   -4.4624   -0.0830    0.1273 H   0  0  0  0  0  0  0  0  0  0  0  0
  1  2  1  0
  2  3  1  0
  3  4  1  0
  4  5  2  0
  5  6  1  0
  6  7  2  0
  7  8  1  0
  2  9  1  0
  9 10  2  0
  9 11  1  0
  8  4  1  0
  1 12  1  0
  1 13  1  0
  2 14  1  6
  3 15  1  0
  3 16  1  0
  5 17  1  0
  7 18  1  0
  8 19  1  0
 11 20  1  0
M  END
$$$$

     RDKit          3D

 20 20  0  0  0  0  0  0  0  0999 V2000
    2.3032   -1.2851   -0.7275 N   0  0  0  0  0  0  0  0  0  0  0  0
    1.1422   -0.3950   -0.8289 C   0  0  1  0  0  0  0  0  0  0  0  0
    0.0656   -0.9935    0.0149 C   0  0  0  0  0  0  0  0  0  0  0  0
   -1.1788   -0.2030    0.0166 C   0  0  0  0  0  0  0  0  0  0  0  0
   -1.4814    0.7877    0.9176 C   0  0  0  0  0  0  0  0  0  0  0  0
   -2.6982    1.2581    0.5705 N   0  0  0  0  0  0  0  0  0  0  0  0
   -3.1318    0.5825   -0.5056 C   0  0  0  0  0  0  0  0  0  0  0  0
   -2.2018   -0.3167   -0.8502 N   0  0  0  0  0  0  0  0  0  0  0  0
    1.5154    0.9240   -0.2865 C   0  0  0  0  0  0  0  0  0  0  0  0
    0.7333    1.9141   -0.2841 O   0  0  0  0  0  0  0  0  0  0  0  0
    2.7785    1.1083    0.2506 O   0  0  0  0  0  0  0  0  0  0  0  0
    2.0531   -2.1972   -0.3251 H   0  0  0  0  0  0  0  0  0  0  0  0
    3.0797   -0.8081   -0.1982 H   0  0  0  0  0  0  0  0  0  0  0  0
    0.8242   -0.3054   -1.8942 H   0  0  0  0  0  0  0  0  0  0  0  0
    0.4564   -1.0100    1.0720 H   0  0  0  0  0  0  0  0  0  0  0  0
   -0.1190   -2.0702   -0.2128 H   0  0  0  0  0  0  0  0  0  0  0  0
   -0.9043    1.1644    1.7650 H   0  0  0  0  0  0  0  0  0  0  0  0
   -4.0791    0.7758   -0.9711 H   0  0  0  0  0  0  0  0  0  0  0  0
   -2.2880   -0.9737   -1.6546 H   0  0  0  0  0  0  0  0  0  0  0  0
    3.1309    2.0430    0.4040 H   0  0  0  0  0  0  0  0  0  0  0  0
  1  2  1  0
  2  3  1  0
  3  4  1  0
  4  5  2  0
  5  6  1  0
  6  7  2  0
  7  8  1  0
  2  9  1  0
  9 10  2  0
  9 11  1  0
  8  4  1  0
  1 12  1  0
  1 13  1  0
  2 14  1  6
  3 15  1  0
  3 16  1  0
  5 17  1  0
  7 18  1  0
  8 19  1  0
 11 20  1  0
M  END
$$$$

     RDKit          3D

 20 20  0  0  0  0  0  0  0  0999 V2000
    2.3726   -0.8704   -0.8052 N   0  0  0  0  0  0  0  0  0  0  0  0
    1.3156    0.1152   -0.4483 C   0  0  1  0  0  0  0  0  0  0  0  0
    0.0501   -0.6340   -0.6279 C   0  0  0  0  0  0  0  0  0  0  0  0
   -1.1965    0.0765   -0.3939 C   0  0  0  0  0  0  0  0  0  0  0  0
   -1.5206    1.3770   -0.1483 C   0  0  0  0  0  0  0  0  0  0  0  0
   -2.8729    1.4699    0.0200 N   0  0  0  0  0  0  0  0  0  0  0  0
   -3.3868    0.2459   -0.1191 C   0  0  0  0  0  0  0  0  0  0  0  0
   -2.3866   -0.5957   -0.3679 N   0  0  0  0  0  0  0  0  0  0  0  0
    1.5941    0.4881    0.9606 C   0  0  0  0  0  0  0  0  0  0  0  0
    0.9320    1.2752    1.6575 O   0  0  0  0  0  0  0  0  0  0  0  0
    2.7012   -0.0867    1.5872 O   0  0  0  0  0  0  0  0  0  0  0  0
    2.3844   -1.5588   -0.0195 H   0  0  0  0  0  0  0  0  0  0  0  0
    3.2793   -0.4039   -0.9046 H   0  0  0  0  0  0  0  0  0  0  0  0
    1.4522    0.9827   -1.0895 H   0  0  0  0  0  0  0  0  0  0  0  0
    0.0833   -1.5523   -0.0052 H   0  0  0  0  0  0  0  0  0  0  0  0
    0.0331   -0.9881   -1.7018 H   0  0  0  0  0  0  0  0  0  0  0  0
   -0.8137    2.1894   -0.1107 H   0  0  0  0  0  0  0  0  0  0  0  0
   -4.4461   -0.0511   -0.0468 H   0  0  0  0  0  0  0  0  0  0  0  0
   -2.5196   -1.6252   -0.5191 H   0  0  0  0  0  0  0  0  0  0  0  0
    2.9450    0.1465    2.5562 H   0  0  0  0  0  0  0  0  0  0  0  0
  1  2  1  0
  2  3  1  0
  3  4  1  0
  4  5  2  0
  5  6  1  0
  6  7  2  0
  7  8  1  0
  2  9  1  0
  9 10  2  0
  9 11  1  0
  8  4  1  0
  1 12  1  0
  1 13  1  0
  2 14  1  6
  3 15  1  0
  3 16  1  0
  5 17  1  0
  7 18  1  0
  8 19  1  0
 11 20  1  0
M  END
$$$$

     RDKit          3D

 20 20  0  0  0  0  0  0  0  0999 V2000
   -2.3723   -0.6022    0.9594 N   0  0  0  0  0  0  0  0  0  0  0  0
   -1.2079    0.1169    0.4859 C   0  0  1  0  0  0  0  0  0  0  0  0
   -0.0667   -0.8646    0.4290 C   0  0  0  0  0  0  0  0  0  0  0  0
    1.1922   -0.2963   -0.0324 C   0  0  0  0  0  0  0  0  0  0  0  0
    1.6109   -0.2394   -1.3410 C   0  0  0  0  0  0  0  0  0  0  0  0
    2.8181    0.3529   -1.3693 N   0  0  0  0  0  0  0  0  0  0  0  0
    3.1734    0.6728   -0.1046 C   0  0  0  0  0  0  0  0  0  0  0  0
    2.1607    0.2657    0.7035 N   0  0  0  0  0  0  0  0  0  0  0  0
   -1.5122    0.7458   -0.7923 C   0  0  0  0  0  0  0  0  0  0  0  0
   -0.7026    1.4432   -1.4602 O   0  0  0  0  0  0  0  0  0  0  0  0
   -2.7748    0.5861   -1.3430 O   0  0  0  0  0  0  0  0  0  0  0  0
   -2.1430   -1.5547    1.3099 H   0  0  0  0  0  0  0  0  0  0  0  0
   -3.0930   -0.7249    0.2063 H   0  0  0  0  0  0  0  0  0  0  0  0
   -1.0169    0.9226    1.2376 H   0  0  0  0  0  0  0  0  0  0  0  0
   -0.4113   -1.7442   -0.1507 H   0  0  0  0  0  0  0  0  0  0  0  0
    0.0691   -1.2417    1.4841 H   0  0  0  0  0  0  0  0  0  0  0  0
    1.1160   -0.5868   -2.2445 H   0  0  0  0  0  0  0  0  0  0  0  0
    4.1014    1.1609    0.1601 H   0  0  0  0  0  0  0  0  0  0  0  0
    2.2063    0.4072    1.7443 H   0  0  0  0  0  0  0  0  0  0  0  0
   -3.1475    1.1807   -2.0706 H   0  0  0  0  0  0  0  0  0  0  0  0
  1  2  1  0
  2  3  1  0
  3  4  1  0
  4  5  2  0
  5  6  1  0
  6  7  2  0
  7  8  1  0
  2  9  1  0
  9 10  2  0
  9 11  1  0
  8  4  1  0
  1 12  1  0
  1 13  1  0
  2 14  1  1
  3 15  1  0
  3 16  1  0
  5 17  1  0
  7 18  1  0
  8 19  1  0
 11 20  1  0
M  END
$$$$

     RDKit          3D

 20 20  0  0  0  0  0  0  0  0999 V2000
   -0.7222    1.1261    0.9187 N   0  0  0  0  0  0  0  0  0  0  0  0
   -1.0366    0.2824   -0.1895 C   0  0  1  0  0  0  0  0  0  0  0  0
   -0.2226   -0.9861   -0.1835 C   0  0  0  0  0  0  0  0  0  0  0  0
    1.2138   -0.6232   -0.2550 C   0  0  0  0  0  0  0  0  0  0  0  0
    2.2858   -1.5203   -0.2703 C   0  0  0  0  0  0  0  0  0  0  0  0
    3.4132   -0.7921   -0.3412 N   0  0  0  0  0  0  0  0  0  0  0  0
    3.1000    0.5104   -0.3707 C   0  0  0  0  0  0  0  0  0  0  0  0
    1.7575    0.6016   -0.3177 N   0  0  0  0  0  0  0  0  0  0  0  0
   -2.4921    0.0136   -0.2087 C   0  0  0  0  0  0  0  0  0  0  0  0
   -3.0400   -0.7106   -1.0914 O   0  0  0  0  0  0  0  0  0  0  0  0
   -3.2843    0.5621    0.7572 O   0  0  0  0  0  0  0  0  0  0  0  0
   -1.2966    0.8644    1.7669 H   0  0  0  0  0  0  0  0  0  0  0  0
   -0.9869    2.1169    0.7077 H   0  0  0  0  0  0  0  0  0  0  0  0
   -0.7982    0.8032   -1.1513 H   0  0  0  0  0  0  0  0  0  0  0  0
   -0.4580   -1.6588    0.6541 H   0  0  0  0  0  0  0  0  0  0  0  0
   -0.4636   -1.5504   -1.1213 H   0  0  0  0  0  0  0  0  0  0  0  0
    2.2557   -2.5852   -0.2342 H   0  0  0  0  0  0  0  0  0  0  0  0
    3.7962    1.3540   -0.4274 H   0  0  0  0  0  0  0  0  0  0  0  0
    1.2660    1.5167   -0.3273 H   0  0  0  0  0  0  0  0  0  0  0  0
   -4.2872    0.6753    0.7014 H   0  0  0  0  0  0  0  0  0  0  0  0
  1  2  1  0
  2  3  1  0
  3  4  1  0
  4  5  2  0
  5  6  1  0
  6  7  2  0
  7  8  1  0
  2  9  1  0
  9 10  2  0
  9 11  1  0
  8  4  1  0
  1 12  1  0
  1 13  1  0
  2 14  1  6
  3 15  1  0
  3 16  1  0
  5 17  1  0
  7 18  1  0
  8 19  1  0
 11 20  1  0
M  END
$$$$

     RDKit          3D

 20 20  0  0  0  0  0  0  0  0999 V2000
   -1.5305    0.8310   -0.8988 N   0  0  0  0  0  0  0  0  0  0  0  0
   -1.2552   -0.5745   -0.6814 C   0  0  1  0  0  0  0  0  0  0  0  0
    0.1609   -0.9169   -1.0143 C   0  0  0  0  0  0  0  0  0  0  0  0
    1.1719   -0.2060   -0.2433 C   0  0  0  0  0  0  0  0  0  0  0  0
    1.7392    0.9970   -0.5948 C   0  0  0  0  0  0  0  0  0  0  0  0
    2.6169    1.3143    0.3668 N   0  0  0  0  0  0  0  0  0  0  0  0
    2.6290    0.3720    1.3030 C   0  0  0  0  0  0  0  0  0  0  0  0
    1.7377   -0.5587    0.9199 N   0  0  0  0  0  0  0  0  0  0  0  0
   -1.7046   -0.9520    0.6455 C   0  0  0  0  0  0  0  0  0  0  0  0
   -1.6121   -2.1043    1.1460 O   0  0  0  0  0  0  0  0  0  0  0  0
   -2.2881    0.0100    1.4551 O   0  0  0  0  0  0  0  0  0  0  0  0
   -2.5380    1.0153   -0.6692 H   0  0  0  0  0  0  0  0  0  0  0  0
   -1.2845    1.1444   -1.8591 H   0  0  0  0  0  0  0  0  0  0  0  0
   -1.9144   -1.1177   -1.4223 H   0  0  0  0  0  0  0  0  0  0  0  0
    0.2661   -0.7835   -2.1239 H   0  0  0  0  0  0  0  0  0  0  0  0
    0.2944   -2.0166   -0.8522 H   0  0  0  0  0  0  0  0  0  0  0  0
    1.5154    1.5951   -1.5019 H   0  0  0  0  0  0  0  0  0  0  0  0
    3.2417    0.3435    2.2179 H   0  0  0  0  0  0  0  0  0  0  0  0
    1.5595   -1.4228    1.5043 H   0  0  0  0  0  0  0  0  0  0  0  0
   -2.8054   -0.2145    2.3027 H   0  0  0  0  0  0  0  0  0  0  0  0
  1  2  1  0
  2  3  1  0
  3  4  1  0
  4  5  2  0
  5  6  1  0
  6  7  2  0
  7  8  1  0
  2  9  1  0
  9 10  2  0
  9 11  1  0
  8  4  1  0
  1 12  1  0
  1 13  1  0
  2 14  1  6
  3 15  1  0
  3 16  1  0
  5 17  1  0
  7 18  1  0
  8 19  1  0
 11 20  1  0
M  END
$$$$

     RDKit          3D

 20 20  0  0  0  0  0  0  0  0999 V2000
   -0.9621   -1.5502    0.2784 N   0  0  0  0  0  0  0  0  0  0  0  0
   -1.0698   -0.1196    0.4993 C   0  0  1  0  0  0  0  0  0  0  0  0
   -0.2385    0.5612   -0.5807 C   0  0  0  0  0  0  0  0  0  0  0  0
    1.1776    0.1601   -0.5228 C   0  0  0  0  0  0  0  0  0  0  0  0
    1.7627   -0.8976   -1.1757 C   0  0  0  0  0  0  0  0  0  0  0  0
    3.0778   -0.8965   -0.8385 N   0  0  0  0  0  0  0  0  0  0  0  0
    3.3136    0.1309    0.0012 C   0  0  0  0  0  0  0  0  0  0  0  0
    2.1493    0.7600    0.1807 N   0  0  0  0  0  0  0  0  0  0  0  0
   -2.4782    0.2924    0.2677 C   0  0  0  0  0  0  0  0  0  0  0  0
   -3.3567   -0.5585   -0.0656 O   0  0  0  0  0  0  0  0  0  0  0  0
   -2.8317    1.6389    0.4216 O   0  0  0  0  0  0  0  0  0  0  0  0
   -0.9099   -1.7774   -0.7330 H   0  0  0  0  0  0  0  0  0  0  0  0
   -1.6368   -2.1037    0.8203 H   0  0  0  0  0  0  0  0  0  0  0  0
   -0.7545    0.1759    1.4999 H   0  0  0  0  0  0  0  0  0  0  0  0
   -0.3595    1.6649   -0.5185 H   0  0  0  0  0  0  0  0  0  0  0  0
   -0.6862    0.2792   -1.5732 H   0  0  0  0  0  0  0  0  0  0  0  0
    1.2618   -1.6074   -1.8421 H   0  0  0  0  0  0  0  0  0  0  0  0
    4.2996    0.3255    0.4008 H   0  0  0  0  0  0  0  0  0  0  0  0
    2.0668    1.6079    0.8028 H   0  0  0  0  0  0  0  0  0  0  0  0
   -3.8253    1.9141    0.4213 H   0  0  0  0  0  0  0  0  0  0  0  0
  1  2  1  0
  2  3  1  0
  3  4  1  0
  4  5  2  0
  5  6  1  0
  6  7  2  0
  7  8  1  0
  2  9  1  0
  9 10  2  0
  9 11  1  0
  8  4  1  0
  1 12  1  0
  1 13  1  0
  2 14  1  1
  3 15  1  0
  3 16  1  0
  5 17  1  0
  7 18  1  0
  8 19  1  0
 11 20  1  0
M  END
$$$$

     RDKit          3D

 20 20  0  0  0  0  0  0  0  0999 V2000
    1.3285   -0.7759    0.7173 N   0  0  0  0  0  0  0  0  0  0  0  0
    1.1997   -0.2521   -0.6023 C   0  0  1  0  0  0  0  0  0  0  0  0
   -0.0056    0.6436   -0.6558 C   0  0  0  0  0  0  0  0  0  0  0  0
   -1.2606   -0.0669   -0.3169 C   0  0  0  0  0  0  0  0  0  0  0  0
   -1.4925   -1.3689    0.0269 C   0  0  0  0  0  0  0  0  0  0  0  0
   -2.8107   -1.5187    0.2395 N   0  0  0  0  0  0  0  0  0  0  0  0
   -3.3962   -0.3174    0.0294 C   0  0  0  0  0  0  0  0  0  0  0  0
   -2.4520    0.5601   -0.3079 N   0  0  0  0  0  0  0  0  0  0  0  0
    2.3891    0.5941   -0.8845 C   0  0  0  0  0  0  0  0  0  0  0  0
    2.5340    1.1839   -1.9867 O   0  0  0  0  0  0  0  0  0  0  0  0
    3.3915    0.7696    0.0573 O   0  0  0  0  0  0  0  0  0  0  0  0
    0.5541   -0.5346    1.3638 H   0  0  0  0  0  0  0  0  0  0  0  0
    2.2738   -0.6750    1.1335 H   0  0  0  0  0  0  0  0  0  0  0  0
    1.1753   -1.0526   -1.3690 H   0  0  0  0  0  0  0  0  0  0  0  0
    0.1307    1.4595    0.0601 H   0  0  0  0  0  0  0  0  0  0  0  0
   -0.1002    1.0073   -1.7120 H   0  0  0  0  0  0  0  0  0  0  0  0
   -0.7243   -2.1312    0.1071 H   0  0  0  0  0  0  0  0  0  0  0  0
   -4.4581   -0.0766    0.1138 H   0  0  0  0  0  0  0  0  0  0  0  0
   -2.6389    1.5759   -0.5269 H   0  0  0  0  0  0  0  0  0  0  0  0
    4.3626    0.9760   -0.2123 H   0  0  0  0  0  0  0  0  0  0  0  0
  1  2  1  0
  2  3  1  0
  3  4  1  0
  4  5  2  0
  5  6  1  0
  6  7  2  0
  7  8  1  0
  2  9  1  0
  9 10  2  0
  9 11  1  0
  8  4  1  0
  1 12  1  0
  1 13  1  0
  2 14  1  6
  3 15  1  0
  3 16  1  0
  5 17  1  0
  7 18  1  0
  8 19  1  0
 11 20  1  0
M  END
$$$$

     RDKit          3D

 20 20  0  0  0  0  0  0  0  0999 V2000
   -1.4133    1.5794    0.1649 N   0  0  0  0  0  0  0  0  0  0  0  0
   -1.4760    0.2958   -0.4617 C   0  0  1  0  0  0  0  0  0  0  0  0
   -0.2139    0.0735   -1.2712 C   0  0  0  0  0  0  0  0  0  0  0  0
    1.0020    0.1243   -0.4049 C   0  0  0  0  0  0  0  0  0  0  0  0
    1.7620    1.2258   -0.0918 C   0  0  0  0  0  0  0  0  0  0  0  0
    2.7575    0.8292    0.7110 N   0  0  0  0  0  0  0  0  0  0  0  0
    2.6227   -0.4928    0.8960 C   0  0  0  0  0  0  0  0  0  0  0  0
    1.5573   -0.9174    0.2181 N   0  0  0  0  0  0  0  0  0  0  0  0
   -1.7158   -0.7711    0.5242 C   0  0  0  0  0  0  0  0  0  0  0  0
   -1.8325   -0.4597    1.7357 O   0  0  0  0  0  0  0  0  0  0  0  0
   -1.8227   -2.1122    0.2016 O   0  0  0  0  0  0  0  0  0  0  0  0
   -0.8884    2.3001   -0.3547 H   0  0  0  0  0  0  0  0  0  0  0  0
   -1.2545    1.5698    1.1822 H   0  0  0  0  0  0  0  0  0  0  0  0
   -2.3196    0.2866   -1.1767 H   0  0  0  0  0  0  0  0  0  0  0  0
   -0.2436   -0.8833   -1.8301 H   0  0  0  0  0  0  0  0  0  0  0  0
   -0.1319    0.8997   -1.9970 H   0  0  0  0  0  0  0  0  0  0  0  0
    1.5960    2.2546   -0.4313 H   0  0  0  0  0  0  0  0  0  0  0  0
    3.2792   -1.1402    1.5078 H   0  0  0  0  0  0  0  0  0  0  0  0
    1.2144   -1.9234    0.1855 H   0  0  0  0  0  0  0  0  0  0  0  0
   -2.4788   -2.7389    0.6924 H   0  0  0  0  0  0  0  0  0  0  0  0
  1  2  1  0
  2  3  1  0
  3  4  1  0
  4  5  2  0
  5  6  1  0
  6  7  2  0
  7  8  1  0
  2  9  1  0
  9 10  2  0
  9 11  1  0
  8  4  1  0
  1 12  1  0
  1 13  1  0
  2 14  1  6
  3 15  1  0
  3 16  1  0
  5 17  1  0
  7 18  1  0
  8 19  1  0
 11 20  1  0
M  END
$$$$

     RDKit          3D

 20 20  0  0  0  0  0  0  0  0999 V2000
   -1.2698   -1.3716   -0.8310 N   0  0  0  0  0  0  0  0  0  0  0  0
   -1.2440   -0.3141    0.1116 C   0  0  1  0  0  0  0  0  0  0  0  0
   -0.0769    0.5966    0.0451 C   0  0  0  0  0  0  0  0  0  0  0  0
    1.2316    0.0129    0.2402 C   0  0  0  0  0  0  0  0  0  0  0  0
    1.6159   -1.2835    0.4865 C   0  0  0  0  0  0  0  0  0  0  0  0
    2.9639   -1.3397    0.5959 N   0  0  0  0  0  0  0  0  0  0  0  0
    3.3984   -0.0802    0.4165 C   0  0  0  0  0  0  0  0  0  0  0  0
    2.3709    0.7252    0.2050 N   0  0  0  0  0  0  0  0  0  0  0  0
   -2.4674    0.4960   -0.0275 C   0  0  0  0  0  0  0  0  0  0  0  0
   -3.3173    0.1923   -0.8819 O   0  0  0  0  0  0  0  0  0  0  0  0
   -2.6676    1.5851    0.7861 O   0  0  0  0  0  0  0  0  0  0  0  0
   -1.5580   -1.1121   -1.7924 H   0  0  0  0  0  0  0  0  0  0  0  0
   -1.9498   -2.1026   -0.4964 H   0  0  0  0  0  0  0  0  0  0  0  0
   -1.2734   -0.7567    1.1306 H   0  0  0  0  0  0  0  0  0  0  0  0
   -0.2296    1.4022    0.8006 H   0  0  0  0  0  0  0  0  0  0  0  0
   -0.0798    1.1362   -0.9453 H   0  0  0  0  0  0  0  0  0  0  0  0
    0.9737   -2.1199    0.5794 H   0  0  0  0  0  0  0  0  0  0  0  0
    4.4486    0.2390    0.4407 H   0  0  0  0  0  0  0  0  0  0  0  0
    2.4787    1.7707    0.0373 H   0  0  0  0  0  0  0  0  0  0  0  0
   -3.3482    2.3242    0.5835 H   0  0  0  0  0  0  0  0  0  0  0  0
  1  2  1  0
  2  3  1  0
  3  4  1  0
  4  5  2  0
  5  6  1  0
  6  7  2  0
  7  8  1  0
  2  9  1  0
  9 10  2  0
  9 11  1  0
  8  4  1  0
  1 12  1  0
  1 13  1  0
  2 14  1  1
  3 15  1  0
  3 16  1  0
  5 17  1  0
  7 18  1  0
  8 19  1  0
 11 20  1  0
M  END
$$$$

     RDKit          3D

 20 20  0  0  0  0  0  0  0  0999 V2000
    1.5444   -1.1942   -0.4225 N   0  0  0  0  0  0  0  0  0  0  0  0
    1.3523    0.2205   -0.6609 C   0  0  1  0  0  0  0  0  0  0  0  0
    0.0066    0.4405   -1.3076 C   0  0  0  0  0  0  0  0  0  0  0  0
   -1.0854   -0.0537   -0.4261 C   0  0  0  0  0  0  0  0  0  0  0  0
   -1.6438   -1.3202   -0.3933 C   0  0  0  0  0  0  0  0  0  0  0  0
   -2.6125   -1.3666    0.5504 N   0  0  0  0  0  0  0  0  0  0  0  0
   -2.6485   -0.1365    1.0935 C   0  0  0  0  0  0  0  0  0  0  0  0
   -1.7408    0.6506    0.5159 N   0  0  0  0  0  0  0  0  0  0  0  0
    1.5212    0.9692    0.5854 C   0  0  0  0  0  0  0  0  0  0  0  0
    1.4008    2.2136    0.6202 O   0  0  0  0  0  0  0  0  0  0  0  0
    1.8213    0.3084    1.7666 O   0  0  0  0  0  0  0  0  0  0  0  0
    2.1858   -1.3761    0.3830 H   0  0  0  0  0  0  0  0  0  0  0  0
    1.8394   -1.6962   -1.2880 H   0  0  0  0  0  0  0  0  0  0  0  0
    2.1357    0.5221   -1.3997 H   0  0  0  0  0  0  0  0  0  0  0  0
   -0.1347    1.5223   -1.4893 H   0  0  0  0  0  0  0  0  0  0  0  0
   -0.0053   -0.0675   -2.2869 H   0  0  0  0  0  0  0  0  0  0  0  0
   -1.3773   -2.1664   -1.0072 H   0  0  0  0  0  0  0  0  0  0  0  0
   -3.3385    0.1472    1.8962 H   0  0  0  0  0  0  0  0  0  0  0  0
   -1.5557    1.6470    0.7428 H   0  0  0  0  0  0  0  0  0  0  0  0
    2.3350    0.7360    2.5276 H   0  0  0  0  0  0  0  0  0  0  0  0
  1  2  1  0
  2  3  1  0
  3  4  1  0
  4  5  2  0
  5  6  1  0
  6  7  2  0
  7  8  1  0
  2  9  1  0
  9 10  2  0
  9 11  1  0
  8  4  1  0
  1 12  1  0
  1 13  1  0
  2 14  1  6
  3 15  1  0
  3 16  1  0
  5 17  1  0
  7 18  1  0
  8 19  1  0
 11 20  1  0
M  END
$$$$

     RDKit          3D

 20 20  0  0  0  0  0  0  0  0999 V2000
   -1.0180   -1.5739   -0.7383 N   0  0  0  0  0  0  0  0  0  0  0  0
   -1.1586   -0.4656    0.1491 C   0  0  1  0  0  0  0  0  0  0  0  0
   -0.1872    0.6550   -0.1428 C   0  0  0  0  0  0  0  0  0  0  0  0
    1.2192    0.2091   -0.0303 C   0  0  0  0  0  0  0  0  0  0  0  0
    1.7493   -1.0168    0.2856 C   0  0  0  0  0  0  0  0  0  0  0  0
    3.0937   -0.9373    0.2624 N   0  0  0  0  0  0  0  0  0  0  0  0
    3.3961    0.3345   -0.0670 C   0  0  0  0  0  0  0  0  0  0  0  0
    2.2652    1.0234   -0.2430 N   0  0  0  0  0  0  0  0  0  0  0  0
   -2.5187    0.1030    0.0731 C   0  0  0  0  0  0  0  0  0  0  0  0
   -3.3454   -0.4124   -0.7068 O   0  0  0  0  0  0  0  0  0  0  0  0
   -2.9063    1.1844    0.8348 O   0  0  0  0  0  0  0  0  0  0  0  0
   -1.0103   -1.2610   -1.7235 H   0  0  0  0  0  0  0  0  0  0  0  0
   -1.8569   -2.1911   -0.6305 H   0  0  0  0  0  0  0  0  0  0  0  0
   -0.9733   -0.8136    1.1903 H   0  0  0  0  0  0  0  0  0  0  0  0
   -0.3433    1.4173    0.6634 H   0  0  0  0  0  0  0  0  0  0  0  0
   -0.4222    1.1439   -1.0991 H   0  0  0  0  0  0  0  0  0  0  0  0
    1.1554   -1.8899    0.5126 H   0  0  0  0  0  0  0  0  0  0  0  0
    4.4014    0.7562   -0.1780 H   0  0  0  0  0  0  0  0  0  0  0  0
    2.2257    2.0328   -0.5039 H   0  0  0  0  0  0  0  0  0  0  0  0
   -3.7658    1.7021    0.6945 H   0  0  0  0  0  0  0  0  0  0  0  0
  1  2  1  0
  2  3  1  0
  3  4  1  0
  4  5  2  0
  5  6  1  0
  6  7  2  0
  7  8  1  0
  2  9  1  0
  9 10  2  0
  9 11  1  0
  8  4  1  0
  1 12  1  0
  1 13  1  0
  2 14  1  1
  3 15  1  0
  3 16  1  0
  5 17  1  0
  7 18  1  0
  8 19  1  0
 11 20  1  0
M  END
$$$$

     RDKit          3D

 20 20  0  0  0  0  0  0  0  0999 V2000
   -0.9424   -0.4146    1.3132 N   0  0  0  0  0  0  0  0  0  0  0  0
   -1.1215    0.4957    0.2007 C   0  0  1  0  0  0  0  0  0  0  0  0
   -0.1143    0.0633   -0.8697 C   0  0  0  0  0  0  0  0  0  0  0  0
    1.2657    0.1270   -0.4013 C   0  0  0  0  0  0  0  0  0  0  0  0
    2.1391    1.1764   -0.4718 C   0  0  0  0  0  0  0  0  0  0  0  0
    3.3071    0.7724    0.0911 N   0  0  0  0  0  0  0  0  0  0  0  0
    3.1818   -0.5101    0.5128 C   0  0  0  0  0  0  0  0  0  0  0  0
    1.9391   -0.8716    0.2016 N   0  0  0  0  0  0  0  0  0  0  0  0
   -2.4625    0.3418   -0.4170 C   0  0  0  0  0  0  0  0  0  0  0  0
   -2.7867    1.0562   -1.3981 O   0  0  0  0  0  0  0  0  0  0  0  0
   -3.3177   -0.6041    0.1274 O   0  0  0  0  0  0  0  0  0  0  0  0
   -1.4001   -1.3082    1.0822 H   0  0  0  0  0  0  0  0  0  0  0  0
   -1.2385    0.0040    2.2098 H   0  0  0  0  0  0  0  0  0  0  0  0
   -0.9128    1.5458    0.4848 H   0  0  0  0  0  0  0  0  0  0  0  0
   -0.3973   -0.9785   -1.1351 H   0  0  0  0  0  0  0  0  0  0  0  0
   -0.3117    0.6710   -1.7784 H   0  0  0  0  0  0  0  0  0  0  0  0
    1.9765    2.1579   -0.8867 H   0  0  0  0  0  0  0  0  0  0  0  0
    3.9079   -1.1329    0.9978 H   0  0  0  0  0  0  0  0  0  0  0  0
    1.5425   -1.8287    0.4084 H   0  0  0  0  0  0  0  0  0  0  0  0
   -4.2542   -0.7628   -0.2716 H   0  0  0  0  0  0  0  0  0  0  0  0
  1  2  1  0
  2  3  1  0
  3  4  1  0
  4  5  2  0
  5  6  1  0
  6  7  2  0
  7  8  1  0
  2  9  1  0
  9 10  2  0
  9 11  1  0
  8  4  1  0
  1 12  1  0
  1 13  1  0
  2 14  1  1
  3 15  1  0
  3 16  1  0
  5 17  1  0
  7 18  1  0
  8 19  1  0
 11 20  1  0
M  END
$$$$

     RDKit          3D

 20 20  0  0  0  0  0  0  0  0999 V2000
   -2.6260   -0.9875   -0.6524 N   0  0  0  0  0  0  0  0  0  0  0  0
   -1.4032   -0.6142    0.0449 C   0  0  1  0  0  0  0  0  0  0  0  0
   -0.2113   -0.6921   -0.8695 C   0  0  0  0  0  0  0  0  0  0  0  0
    1.0666   -0.3258   -0.2407 C   0  0  0  0  0  0  0  0  0  0  0  0
    1.9684   -1.1332    0.4397 C   0  0  0  0  0  0  0  0  0  0  0  0
    3.0022   -0.4059    0.8420 N   0  0  0  0  0  0  0  0  0  0  0  0
    2.7910    0.8563    0.4374 C   0  0  0  0  0  0  0  0  0  0  0  0
    1.6103    0.9047   -0.2231 N   0  0  0  0  0  0  0  0  0  0  0  0
   -1.5644    0.7345    0.6284 C   0  0  0  0  0  0  0  0  0  0  0  0
   -2.6040    1.4106    0.4545 O   0  0  0  0  0  0  0  0  0  0  0  0
   -0.5363    1.2603    1.3875 O   0  0  0  0  0  0  0  0  0  0  0  0
   -2.3565   -1.3635   -1.5853 H   0  0  0  0  0  0  0  0  0  0  0  0
   -3.2138   -0.1270   -0.8170 H   0  0  0  0  0  0  0  0  0  0  0  0
   -1.3201   -1.3224    0.9020 H   0  0  0  0  0  0  0  0  0  0  0  0
   -0.1470   -1.7253   -1.2650 H   0  0  0  0  0  0  0  0  0  0  0  0
   -0.3917    0.0130   -1.7104 H   0  0  0  0  0  0  0  0  0  0  0  0
    1.8399   -2.1858    0.6095 H   0  0  0  0  0  0  0  0  0  0  0  0
    3.4279    1.7010    0.5947 H   0  0  0  0  0  0  0  0  0  0  0  0
    1.2039    1.7709   -0.6484 H   0  0  0  0  0  0  0  0  0  0  0  0
   -0.5361    2.2315    1.6710 H   0  0  0  0  0  0  0  0  0  0  0  0
  1  2  1  0
  2  3  1  0
  3  4  1  0
  4  5  2  0
  5  6  1  0
  6  7  2  0
  7  8  1  0
  2  9  1  0
  9 10  2  0
  9 11  1  0
  8  4  1  0
  1 12  1  0
  1 13  1  0
  2 14  1  1
  3 15  1  0
  3 16  1  0
  5 17  1  0
  7 18  1  0
  8 19  1  0
 11 20  1  0
M  END
$$$$

     RDKit          3D

 20 20  0  0  0  0  0  0  0  0999 V2000
   -2.4371   -1.1857    0.6637 N   0  0  0  0  0  0  0  0  0  0  0  0
   -1.3054   -0.2147    0.7029 C   0  0  1  0  0  0  0  0  0  0  0  0
   -0.1841   -0.9384    0.0608 C   0  0  0  0  0  0  0  0  0  0  0  0
    1.1029   -0.2820   -0.0288 C   0  0  0  0  0  0  0  0  0  0  0  0
    2.1561   -0.8509   -0.7480 C   0  0  0  0  0  0  0  0  0  0  0  0
    3.2161   -0.0677   -0.6485 N   0  0  0  0  0  0  0  0  0  0  0  0
    2.9024    0.9857    0.1027 C   0  0  0  0  0  0  0  0  0  0  0  0
    1.5996    0.8432    0.4790 N   0  0  0  0  0  0  0  0  0  0  0  0
   -1.8212    0.9186   -0.1375 C   0  0  0  0  0  0  0  0  0  0  0  0
   -2.9626    0.9023   -0.6643 O   0  0  0  0  0  0  0  0  0  0  0  0
   -1.0717    2.0491   -0.3830 O   0  0  0  0  0  0  0  0  0  0  0  0
   -2.5273   -1.4943   -0.3448 H   0  0  0  0  0  0  0  0  0  0  0  0
   -2.1940   -2.0347    1.1981 H   0  0  0  0  0  0  0  0  0  0  0  0
   -1.1759    0.0477    1.7520 H   0  0  0  0  0  0  0  0  0  0  0  0
   -0.0197   -1.8734    0.6805 H   0  0  0  0  0  0  0  0  0  0  0  0
   -0.5392   -1.3404   -0.9161 H   0  0  0  0  0  0  0  0  0  0  0  0
    2.1420   -1.7940   -1.3155 H   0  0  0  0  0  0  0  0  0  0  0  0
    3.5144    1.8363    0.4019 H   0  0  0  0  0  0  0  0  0  0  0  0
    1.0696    1.5011    1.0815 H   0  0  0  0  0  0  0  0  0  0  0  0
   -1.4650    2.9921   -0.3373 H   0  0  0  0  0  0  0  0  0  0  0  0
  1  2  1  0
  2  3  1  0
  3  4  1  0
  4  5  2  0
  5  6  1  0
  6  7  2  0
  7  8  1  0
  2  9  1  0
  9 10  2  0
  9 11  1  0
  8  4  1  0
  1 12  1  0
  1 13  1  0
  2 14  1  1
  3 15  1  0
  3 16  1  0
  5 17  1  0
  7 18  1  0
  8 19  1  0
 11 20  1  0
M  END
$$$$

     RDKit          3D

 20 20  0  0  0  0  0  0  0  0999 V2000
   -0.8496    1.0633    0.7471 N   0  0  0  0  0  0  0  0  0  0  0  0
   -1.0489    0.3313   -0.4827 C   0  0  1  0  0  0  0  0  0  0  0  0
   -0.1606   -0.9131   -0.3893 C   0  0  0  0  0  0  0  0  0  0  0  0
    1.2311   -0.4113   -0.2413 C   0  0  0  0  0  0  0  0  0  0  0  0
    2.1116   -0.1352   -1.2579 C   0  0  0  0  0  0  0  0  0  0  0  0
    3.2463    0.2905   -0.6897 N   0  0  0  0  0  0  0  0  0  0  0  0
    3.1010    0.2883    0.6437 C   0  0  0  0  0  0  0  0  0  0  0  0
    1.8588   -0.1447    0.9110 N   0  0  0  0  0  0  0  0  0  0  0  0
   -2.4593   -0.0593   -0.6273 C   0  0  0  0  0  0  0  0  0  0  0  0
   -2.8252   -0.7115   -1.6490 O   0  0  0  0  0  0  0  0  0  0  0  0
   -3.4512    0.2441    0.3042 O   0  0  0  0  0  0  0  0  0  0  0  0
   -1.4238    1.9026    0.8455 H   0  0  0  0  0  0  0  0  0  0  0  0
   -0.8571    0.4279    1.5822 H   0  0  0  0  0  0  0  0  0  0  0  0
   -0.7219    0.9788   -1.3075 H   0  0  0  0  0  0  0  0  0  0  0  0
   -0.2468   -1.4757   -1.3388 H   0  0  0  0  0  0  0  0  0  0  0  0
   -0.4693   -1.4997    0.4879 H   0  0  0  0  0  0  0  0  0  0  0  0
    1.9262   -0.2415   -2.3386 H   0  0  0  0  0  0  0  0  0  0  0  0
    3.8872    0.5943    1.3342 H   0  0  0  0  0  0  0  0  0  0  0  0
    1.4791   -0.2433    1.8986 H   0  0  0  0  0  0  0  0  0  0  0  0
   -4.3278   -0.2858    0.2692 H   0  0  0  0  0  0  0  0  0  0  0  0
  1  2  1  0
  2  3  1  0
  3  4  1  0
  4  5  2  0
  5  6  1  0
  6  7  2  0
  7  8  1  0
  2  9  1  0
  9 10  2  0
  9 11  1  0
  8  4  1  0
  1 12  1  0
  1 13  1  0
  2 14  1  6
  3 15  1  0
  3 16  1  0
  5 17  1  0
  7 18  1  0
  8 19  1  0
 11 20  1  0
M  END
$$$$

     RDKit          3D

 20 20  0  0  0  0  0  0  0  0999 V2000
   -2.3118   -1.5495   -0.3456 N   0  0  0  0  0  0  0  0  0  0  0  0
   -1.3324   -0.6200    0.1787 C   0  0  1  0  0  0  0  0  0  0  0  0
    0.0142   -1.0533   -0.3062 C   0  0  0  0  0  0  0  0  0  0  0  0
    1.1251   -0.2203    0.1323 C   0  0  0  0  0  0  0  0  0  0  0  0
    1.8881   -0.3538    1.2643 C   0  0  0  0  0  0  0  0  0  0  0  0
    2.8095    0.6270    1.2866 N   0  0  0  0  0  0  0  0  0  0  0  0
    2.6252    1.3668    0.1800 C   0  0  0  0  0  0  0  0  0  0  0  0
    1.5964    0.8486   -0.5242 N   0  0  0  0  0  0  0  0  0  0  0  0
   -1.7183    0.7353   -0.1525 C   0  0  0  0  0  0  0  0  0  0  0  0
   -2.7786    0.9211   -0.8064 O   0  0  0  0  0  0  0  0  0  0  0  0
   -1.0200    1.8846    0.1860 O   0  0  0  0  0  0  0  0  0  0  0  0
   -2.5605   -1.2277   -1.3243 H   0  0  0  0  0  0  0  0  0  0  0  0
   -1.8736   -2.4974   -0.4642 H   0  0  0  0  0  0  0  0  0  0  0  0
   -1.3963   -0.7274    1.3021 H   0  0  0  0  0  0  0  0  0  0  0  0
    0.1865   -2.0858    0.1229 H   0  0  0  0  0  0  0  0  0  0  0  0
    0.0011   -1.2130   -1.4055 H   0  0  0  0  0  0  0  0  0  0  0  0
    1.8094   -1.1123    2.0569 H   0  0  0  0  0  0  0  0  0  0  0  0
    3.1915    2.2530   -0.1400 H   0  0  0  0  0  0  0  0  0  0  0  0
    1.2418    1.2462   -1.4454 H   0  0  0  0  0  0  0  0  0  0  0  0
   -1.4972    2.7779    0.2045 H   0  0  0  0  0  0  0  0  0  0  0  0
  1  2  1  0
  2  3  1  0
  3  4  1  0
  4  5  2  0
  5  6  1  0
  6  7  2  0
  7  8  1  0
  2  9  1  0
  9 10  2  0
  9 11  1  0
  8  4  1  0
  1 12  1  0
  1 13  1  0
  2 14  1  1
  3 15  1  0
  3 16  1  0
  5 17  1  0
  7 18  1  0
  8 19  1  0
 11 20  1  0
M  END
$$$$

     RDKit          3D

 20 20  0  0  0  0  0  0  0  0999 V2000
    2.2289   -1.7637    0.0122 N   0  0  0  0  0  0  0  0  0  0  0  0
    1.2390   -0.7577   -0.3665 C   0  0  1  0  0  0  0  0  0  0  0  0
   -0.0402   -1.0773    0.3644 C   0  0  0  0  0  0  0  0  0  0  0  0
   -1.1302   -0.1253    0.0682 C   0  0  0  0  0  0  0  0  0  0  0  0
   -2.0420   -0.2314   -0.9536 C   0  0  0  0  0  0  0  0  0  0  0  0
   -2.8712    0.8258   -0.8814 N   0  0  0  0  0  0  0  0  0  0  0  0
   -2.5085    1.5952    0.1562 C   0  0  0  0  0  0  0  0  0  0  0  0
   -1.4404    0.9955    0.7250 N   0  0  0  0  0  0  0  0  0  0  0  0
    1.6890    0.6011   -0.0486 C   0  0  0  0  0  0  0  0  0  0  0  0
    2.8110    0.7963    0.5332 O   0  0  0  0  0  0  0  0  0  0  0  0
    0.9696    1.7460   -0.3385 O   0  0  0  0  0  0  0  0  0  0  0  0
    1.7670   -2.5746    0.4325 H   0  0  0  0  0  0  0  0  0  0  0  0
    3.0280   -1.3793    0.5215 H   0  0  0  0  0  0  0  0  0  0  0  0
    1.1163   -0.8581   -1.4659 H   0  0  0  0  0  0  0  0  0  0  0  0
   -0.3633   -2.1156    0.0592 H   0  0  0  0  0  0  0  0  0  0  0  0
    0.1732   -1.1266    1.4523 H   0  0  0  0  0  0  0  0  0  0  0  0
   -2.0778   -1.0402   -1.6922 H   0  0  0  0  0  0  0  0  0  0  0  0
   -2.9937    2.5166    0.4612 H   0  0  0  0  0  0  0  0  0  0  0  0
   -0.9655    1.3898    1.5559 H   0  0  0  0  0  0  0  0  0  0  0  0
    1.4107    2.5837   -0.7130 H   0  0  0  0  0  0  0  0  0  0  0  0
  1  2  1  0
  2  3  1  0
  3  4  1  0
  4  5  2  0
  5  6  1  0
  6  7  2  0
  7  8  1  0
  2  9  1  0
  9 10  2  0
  9 11  1  0
  8  4  1  0
  1 12  1  0
  1 13  1  0
  2 14  1  6
  3 15  1  0
  3 16  1  0
  5 17  1  0
  7 18  1  0
  8 19  1  0
 11 20  1  0
M  END
$$$$

     RDKit          3D

 20 20  0  0  0  0  0  0  0  0999 V2000
   -1.1486   -0.3249   -1.7931 N   0  0  0  0  0  0  0  0  0  0  0  0
   -1.3607   -0.5267   -0.3968 C   0  0  1  0  0  0  0  0  0  0  0  0
   -0.2219   -1.1570    0.3294 C   0  0  0  0  0  0  0  0  0  0  0  0
    1.0376   -0.4207    0.2918 C   0  0  0  0  0  0  0  0  0  0  0  0
    2.1752   -0.8873    0.9214 C   0  0  0  0  0  0  0  0  0  0  0  0
    3.1469   -0.0138    0.7134 N   0  0  0  0  0  0  0  0  0  0  0  0
    2.6570    0.9774   -0.0211 C   0  0  0  0  0  0  0  0  0  0  0  0
    1.3684    0.7350   -0.2822 N   0  0  0  0  0  0  0  0  0  0  0  0
   -1.8385    0.7308    0.2277 C   0  0  0  0  0  0  0  0  0  0  0  0
   -1.9960    1.7633   -0.4750 O   0  0  0  0  0  0  0  0  0  0  0  0
   -2.1323    0.8472    1.5778 O   0  0  0  0  0  0  0  0  0  0  0  0
   -1.2853    0.6948   -2.0588 H   0  0  0  0  0  0  0  0  0  0  0  0
   -1.8235   -0.8493   -2.3936 H   0  0  0  0  0  0  0  0  0  0  0  0
   -2.2238   -1.2532   -0.3001 H   0  0  0  0  0  0  0  0  0  0  0  0
   -0.5213   -1.2823    1.3903 H   0  0  0  0  0  0  0  0  0  0  0  0
   -0.0609   -2.1656   -0.0863 H   0  0  0  0  0  0  0  0  0  0  0  0
    2.3049   -1.8009    1.4976 H   0  0  0  0  0  0  0  0  0  0  0  0
    3.2002    1.8538   -0.3649 H   0  0  0  0  0  0  0  0  0  0  0  0
    0.7107    1.3441   -0.8452 H   0  0  0  0  0  0  0  0  0  0  0  0
   -1.9882    1.7354    2.0680 H   0  0  0  0  0  0  0  0  0  0  0  0
  1  2  1  0
  2  3  1  0
  3  4  1  0
  4  5  2  0
  5  6  1  0
  6  7  2  0
  7  8  1  0
  2  9  1  0
  9 10  2  0
  9 11  1  0
  8  4  1  0
  1 12  1  0
  1 13  1  0
  2 14  1  6
  3 15  1  0
  3 16  1  0
  5 17  1  0
  7 18  1  0
  8 19  1  0
 11 20  1  0
M  END
$$$$

     RDKit          3D

 20 20  0  0  0  0  0  0  0  0999 V2000
   -0.9300    1.4371   -0.8475 N   0  0  0  0  0  0  0  0  0  0  0  0
   -1.1569    0.0980   -0.3835 C   0  0  1  0  0  0  0  0  0  0  0  0
   -0.1515   -0.3624    0.6339 C   0  0  0  0  0  0  0  0  0  0  0  0
    1.2336   -0.3564    0.1301 C   0  0  0  0  0  0  0  0  0  0  0  0
    1.8479   -1.4194   -0.4974 C   0  0  0  0  0  0  0  0  0  0  0  0
    3.1025   -1.0228   -0.8055 N   0  0  0  0  0  0  0  0  0  0  0  0
    3.2940    0.2245   -0.4025 C   0  0  0  0  0  0  0  0  0  0  0  0
    2.1323    0.6187    0.1714 N   0  0  0  0  0  0  0  0  0  0  0  0
   -2.5099    0.0433    0.2310 C   0  0  0  0  0  0  0  0  0  0  0  0
   -3.2781    1.0377    0.3017 O   0  0  0  0  0  0  0  0  0  0  0  0
   -2.9919   -1.1543    0.7696 O   0  0  0  0  0  0  0  0  0  0  0  0
   -1.0108    2.1009   -0.0218 H   0  0  0  0  0  0  0  0  0  0  0  0
   -1.7246    1.6910   -1.4759 H   0  0  0  0  0  0  0  0  0  0  0  0
   -1.1801   -0.5857   -1.2578 H   0  0  0  0  0  0  0  0  0  0  0  0
   -0.4501   -1.4045    0.9244 H   0  0  0  0  0  0  0  0  0  0  0  0
   -0.2801    0.2497    1.5549 H   0  0  0  0  0  0  0  0  0  0  0  0
    1.4288   -2.3974   -0.7151 H   0  0  0  0  0  0  0  0  0  0  0  0
    4.1872    0.8216   -0.5025 H   0  0  0  0  0  0  0  0  0  0  0  0
    1.9872    1.5535    0.5789 H   0  0  0  0  0  0  0  0  0  0  0  0
   -3.5496   -1.1730    1.6135 H   0  0  0  0  0  0  0  0  0  0  0  0
  1  2  1  0
  2  3  1  0
  3  4  1  0
  4  5  2  0
  5  6  1  0
  6  7  2  0
  7  8  1  0
  2  9  1  0
  9 10  2  0
  9 11  1  0
  8  4  1  0
  1 12  1  0
  1 13  1  0
  2 14  1  6
  3 15  1  0
  3 16  1  0
  5 17  1  0
  7 18  1  0
  8 19  1  0
 11 20  1  0
M  END
$$$$

     RDKit          3D

 20 20  0  0  0  0  0  0  0  0999 V2000
   -2.1960   -1.7241    0.3904 N   0  0  0  0  0  0  0  0  0  0  0  0
   -1.2492   -0.6021    0.3869 C   0  0  1  0  0  0  0  0  0  0  0  0
    0.0865   -1.0697   -0.1007 C   0  0  0  0  0  0  0  0  0  0  0  0
    1.1238   -0.0405   -0.1543 C   0  0  0  0  0  0  0  0  0  0  0  0
    1.4608    0.7874   -1.2022 C   0  0  0  0  0  0  0  0  0  0  0  0
    2.4750    1.5840   -0.8028 N   0  0  0  0  0  0  0  0  0  0  0  0
    2.7811    1.2719    0.4760 C   0  0  0  0  0  0  0  0  0  0  0  0
    1.9549    0.2895    0.8495 N   0  0  0  0  0  0  0  0  0  0  0  0
   -1.7953    0.4253   -0.5301 C   0  0  0  0  0  0  0  0  0  0  0  0
   -2.8634    0.2427   -1.1803 O   0  0  0  0  0  0  0  0  0  0  0  0
   -1.1451    1.6518   -0.7151 O   0  0  0  0  0  0  0  0  0  0  0  0
   -1.6712   -2.5391    0.7735 H   0  0  0  0  0  0  0  0  0  0  0  0
   -2.9685   -1.4445    1.0312 H   0  0  0  0  0  0  0  0  0  0  0  0
   -1.1567   -0.1892    1.4208 H   0  0  0  0  0  0  0  0  0  0  0  0
    0.4129   -1.9195    0.5660 H   0  0  0  0  0  0  0  0  0  0  0  0
   -0.0354   -1.5425   -1.1059 H   0  0  0  0  0  0  0  0  0  0  0  0
    0.9944    0.7934   -2.1759 H   0  0  0  0  0  0  0  0  0  0  0  0
    3.5354    1.6968    1.1243 H   0  0  0  0  0  0  0  0  0  0  0  0
    1.9500   -0.1661    1.7945 H   0  0  0  0  0  0  0  0  0  0  0  0
   -1.6940    2.4944   -0.8455 H   0  0  0  0  0  0  0  0  0  0  0  0
  1  2  1  0
  2  3  1  0
  3  4  1  0
  4  5  2  0
  5  6  1  0
  6  7  2  0
  7  8  1  0
  2  9  1  0
  9 10  2  0
  9 11  1  0
  8  4  1  0
  1 12  1  0
  1 13  1  0
  2 14  1  1
  3 15  1  0
  3 16  1  0
  5 17  1  0
  7 18  1  0
  8 19  1  0
 11 20  1  0
M  END
$$$$

     RDKit          3D

 20 20  0  0  0  0  0  0  0  0999 V2000
   -1.1097   -0.8050   -1.4935 N   0  0  0  0  0  0  0  0  0  0  0  0
   -1.3912   -0.4671   -0.1362 C   0  0  1  0  0  0  0  0  0  0  0  0
   -0.3299   -0.9741    0.8180 C   0  0  0  0  0  0  0  0  0  0  0  0
    1.0008   -0.4305    0.5313 C   0  0  0  0  0  0  0  0  0  0  0  0
    1.9318   -0.9957   -0.3108 C   0  0  0  0  0  0  0  0  0  0  0  0
    3.0194   -0.2064   -0.3109 N   0  0  0  0  0  0  0  0  0  0  0  0
    2.8008    0.8374    0.5048 C   0  0  0  0  0  0  0  0  0  0  0  0
    1.5506    0.6918    1.0219 N   0  0  0  0  0  0  0  0  0  0  0  0
   -1.6202    0.9847   -0.0044 C   0  0  0  0  0  0  0  0  0  0  0  0
   -1.5442    1.6965   -1.0337 O   0  0  0  0  0  0  0  0  0  0  0  0
   -1.9170    1.6307    1.1871 O   0  0  0  0  0  0  0  0  0  0  0  0
   -1.6560   -1.6416   -1.8215 H   0  0  0  0  0  0  0  0  0  0  0  0
   -1.2740   -0.0191   -2.1575 H   0  0  0  0  0  0  0  0  0  0  0  0
   -2.3326   -1.0242    0.1470 H   0  0  0  0  0  0  0  0  0  0  0  0
   -0.6920   -0.7372    1.8510 H   0  0  0  0  0  0  0  0  0  0  0  0
   -0.3721   -2.0934    0.7529 H   0  0  0  0  0  0  0  0  0  0  0  0
    1.8544   -1.9058   -0.8900 H   0  0  0  0  0  0  0  0  0  0  0  0
    3.4928    1.6409    0.7090 H   0  0  0  0  0  0  0  0  0  0  0  0
    1.1544    1.3874    1.6889 H   0  0  0  0  0  0  0  0  0  0  0  0
   -2.5662    2.4309    1.2248 H   0  0  0  0  0  0  0  0  0  0  0  0
  1  2  1  0
  2  3  1  0
  3  4  1  0
  4  5  2  0
  5  6  1  0
  6  7  2  0
  7  8  1  0
  2  9  1  0
  9 10  2  0
  9 11  1  0
  8  4  1  0
  1 12  1  0
  1 13  1  0
  2 14  1  1
  3 15  1  0
  3 16  1  0
  5 17  1  0
  7 18  1  0
  8 19  1  0
 11 20  1  0
M  END
$$$$

     RDKit          3D

 20 20  0  0  0  0  0  0  0  0999 V2000
    2.4117   -1.3236    0.5032 N   0  0  0  0  0  0  0  0  0  0  0  0
    1.2691   -0.8284   -0.3196 C   0  0  1  0  0  0  0  0  0  0  0  0
    0.2358   -0.4933    0.6780 C   0  0  0  0  0  0  0  0  0  0  0  0
   -1.0539   -0.0095    0.2085 C   0  0  0  0  0  0  0  0  0  0  0  0
   -1.6243    0.1089   -1.0340 C   0  0  0  0  0  0  0  0  0  0  0  0
   -2.8522    0.6555   -0.8436 N   0  0  0  0  0  0  0  0  0  0  0  0
   -3.0481    0.8714    0.4583 C   0  0  0  0  0  0  0  0  0  0  0  0
   -1.9654    0.4718    1.1012 N   0  0  0  0  0  0  0  0  0  0  0  0
    1.8386    0.3262   -1.0323 C   0  0  0  0  0  0  0  0  0  0  0  0
    3.0397    0.6295   -0.8581 O   0  0  0  0  0  0  0  0  0  0  0  0
    1.1259    1.1213   -1.9024 O   0  0  0  0  0  0  0  0  0  0  0  0
    1.9735   -1.9942    1.1708 H   0  0  0  0  0  0  0  0  0  0  0  0
    2.6941   -0.4825    1.0576 H   0  0  0  0  0  0  0  0  0  0  0  0
    0.9903   -1.6549   -0.9903 H   0  0  0  0  0  0  0  0  0  0  0  0
    0.0425   -1.4177    1.2890 H   0  0  0  0  0  0  0  0  0  0  0  0
    0.6576    0.2508    1.3931 H   0  0  0  0  0  0  0  0  0  0  0  0
   -1.1761   -0.1905   -1.9589 H   0  0  0  0  0  0  0  0  0  0  0  0
   -3.9460    1.3045    0.9278 H   0  0  0  0  0  0  0  0  0  0  0  0
   -1.8726    0.5384    2.1552 H   0  0  0  0  0  0  0  0  0  0  0  0
    1.2596    2.1164   -2.0034 H   0  0  0  0  0  0  0  0  0  0  0  0
  1  2  1  0
  2  3  1  0
  3  4  1  0
  4  5  2  0
  5  6  1  0
  6  7  2  0
  7  8  1  0
  2  9  1  0
  9 10  2  0
  9 11  1  0
  8  4  1  0
  1 12  1  0
  1 13  1  0
  2 14  1  6
  3 15  1  0
  3 16  1  0
  5 17  1  0
  7 18  1  0
  8 19  1  0
 11 20  1  0
M  END
$$$$

     RDKit          3D

 20 20  0  0  0  0  0  0  0  0999 V2000
   -1.1856    1.2303    0.2737 N   0  0  0  0  0  0  0  0  0  0  0  0
   -1.1094   -0.0600   -0.2494 C   0  0  1  0  0  0  0  0  0  0  0  0
   -0.0348   -0.8942    0.4256 C   0  0  0  0  0  0  0  0  0  0  0  0
    1.2936   -0.2908    0.2679 C   0  0  0  0  0  0  0  0  0  0  0  0
    2.4546   -0.8191    0.7709 C   0  0  0  0  0  0  0  0  0  0  0  0
    3.4928   -0.0020    0.4378 N   0  0  0  0  0  0  0  0  0  0  0  0
    2.9738    1.0265   -0.2680 C   0  0  0  0  0  0  0  0  0  0  0  0
    1.6494    0.8443   -0.3654 N   0  0  0  0  0  0  0  0  0  0  0  0
   -2.4178   -0.7435   -0.1215 C   0  0  0  0  0  0  0  0  0  0  0  0
   -2.6115   -1.9242   -0.5210 O   0  0  0  0  0  0  0  0  0  0  0  0
   -3.4718   -0.0574    0.4608 O   0  0  0  0  0  0  0  0  0  0  0  0
   -1.0429    1.3729    1.2726 H   0  0  0  0  0  0  0  0  0  0  0  0
   -1.4524    2.0054   -0.3042 H   0  0  0  0  0  0  0  0  0  0  0  0
   -0.8634   -0.0371   -1.3306 H   0  0  0  0  0  0  0  0  0  0  0  0
   -0.2347   -1.0239    1.5103 H   0  0  0  0  0  0  0  0  0  0  0  0
   -0.0875   -1.9186   -0.0255 H   0  0  0  0  0  0  0  0  0  0  0  0
    2.5413   -1.7309    1.3381 H   0  0  0  0  0  0  0  0  0  0  0  0
    3.5536    1.8452   -0.6741 H   0  0  0  0  0  0  0  0  0  0  0  0
    0.9999    1.4704   -0.8474 H   0  0  0  0  0  0  0  0  0  0  0  0
   -4.4473   -0.2933    0.2921 H   0  0  0  0  0  0  0  0  0  0  0  0
  1  2  1  0
  2  3  1  0
  3  4  1  0
  4  5  2  0
  5  6  1  0
  6  7  2  0
  7  8  1  0
  2  9  1  0
  9 10  2  0
  9 11  1  0
  8  4  1  0
  1 12  1  0
  1 13  1  0
  2 14  1  6
  3 15  1  0
  3 16  1  0
  5 17  1  0
  7 18  1  0
  8 19  1  0
 11 20  1  0
M  END
$$$$

     RDKit          3D

 20 20  0  0  0  0  0  0  0  0999 V2000
   -2.4010   -1.3209    0.4329 N   0  0  0  0  0  0  0  0  0  0  0  0
   -1.2791   -0.3531    0.5829 C   0  0  1  0  0  0  0  0  0  0  0  0
   -0.1265   -1.0095   -0.0801 C   0  0  0  0  0  0  0  0  0  0  0  0
    1.1526   -0.3180   -0.0612 C   0  0  0  0  0  0  0  0  0  0  0  0
    2.2343   -0.8163   -0.8015 C   0  0  0  0  0  0  0  0  0  0  0  0
    3.2793   -0.0343   -0.6000 N   0  0  0  0  0  0  0  0  0  0  0  0
    2.9302    0.9407    0.2300 C   0  0  0  0  0  0  0  0  0  0  0  0
    1.6217    0.7693    0.5644 N   0  0  0  0  0  0  0  0  0  0  0  0
   -1.7419    0.8456   -0.1959 C   0  0  0  0  0  0  0  0  0  0  0  0
   -2.8892    0.8088   -0.7534 O   0  0  0  0  0  0  0  0  0  0  0  0
   -0.9730    1.9838   -0.3308 O   0  0  0  0  0  0  0  0  0  0  0  0
   -3.2773   -0.9055    0.7813 H   0  0  0  0  0  0  0  0  0  0  0  0
   -2.4219   -1.5476   -0.5895 H   0  0  0  0  0  0  0  0  0  0  0  0
   -1.1961   -0.1375    1.6408 H   0  0  0  0  0  0  0  0  0  0  0  0
   -0.4220   -1.1826   -1.1513 H   0  0  0  0  0  0  0  0  0  0  0  0
    0.0133   -2.0135    0.3778 H   0  0  0  0  0  0  0  0  0  0  0  0
    2.2561   -1.6978   -1.4487 H   0  0  0  0  0  0  0  0  0  0  0  0
    3.5962    1.7226    0.5639 H   0  0  0  0  0  0  0  0  0  0  0  0
    1.0967    1.3736    1.2026 H   0  0  0  0  0  0  0  0  0  0  0  0
   -1.4523    2.8923   -0.3457 H   0  0  0  0  0  0  0  0  0  0  0  0
  1  2  1  0
  2  3  1  0
  3  4  1  0
  4  5  2  0
  5  6  1  0
  6  7  2  0
  7  8  1  0
  2  9  1  0
  9 10  2  0
  9 11  1  0
  8  4  1  0
  1 12  1  0
  1 13  1  0
  2 14  1  1
  3 15  1  0
  3 16  1  0
  5 17  1  0
  7 18  1  0
  8 19  1  0
 11 20  1  0
M  END
$$$$

     RDKit          3D

 20 20  0  0  0  0  0  0  0  0999 V2000
   -2.1551   -1.3844    1.0756 N   0  0  0  0  0  0  0  0  0  0  0  0
   -1.1243   -0.3364    0.8434 C   0  0  1  0  0  0  0  0  0  0  0  0
   -0.0750   -0.9994    0.0252 C   0  0  0  0  0  0  0  0  0  0  0  0
    1.0980   -0.1965   -0.3144 C   0  0  0  0  0  0  0  0  0  0  0  0
    2.0672   -0.6593   -1.2039 C   0  0  0  0  0  0  0  0  0  0  0  0
    3.0274    0.2751   -1.2936 N   0  0  0  0  0  0  0  0  0  0  0  0
    2.7127    1.3108   -0.5012 C   0  0  0  0  0  0  0  0  0  0  0  0
    1.5368    1.0041    0.0852 N   0  0  0  0  0  0  0  0  0  0  0  0
   -1.8652    0.6839    0.0169 C   0  0  0  0  0  0  0  0  0  0  0  0
   -3.0970    0.5377   -0.2906 O   0  0  0  0  0  0  0  0  0  0  0  0
   -1.2822    1.8352   -0.4647 O   0  0  0  0  0  0  0  0  0  0  0  0
   -1.7368   -2.3221    1.0242 H   0  0  0  0  0  0  0  0  0  0  0  0
   -2.6441   -1.2108    1.9793 H   0  0  0  0  0  0  0  0  0  0  0  0
   -0.8144    0.0598    1.8118 H   0  0  0  0  0  0  0  0  0  0  0  0
   -0.5303   -1.3631   -0.9377 H   0  0  0  0  0  0  0  0  0  0  0  0
    0.2667   -1.9586    0.5173 H   0  0  0  0  0  0  0  0  0  0  0  0
    2.0448   -1.6146   -1.7324 H   0  0  0  0  0  0  0  0  0  0  0  0
    3.2529    2.2273   -0.3297 H   0  0  0  0  0  0  0  0  0  0  0  0
    1.0510    1.6238    0.7695 H   0  0  0  0  0  0  0  0  0  0  0  0
   -1.7330    2.4876   -1.0803 H   0  0  0  0  0  0  0  0  0  0  0  0
  1  2  1  0
  2  3  1  0
  3  4  1  0
  4  5  2  0
  5  6  1  0
  6  7  2  0
  7  8  1  0
  2  9  1  0
  9 10  2  0
  9 11  1  0
  8  4  1  0
  1 12  1  0
  1 13  1  0
  2 14  1  1
  3 15  1  0
  3 16  1  0
  5 17  1  0
  7 18  1  0
  8 19  1  0
 11 20  1  0
M  END
$$$$

     RDKit          3D

 20 20  0  0  0  0  0  0  0  0999 V2000
   -0.5111   -1.3906   -1.1290 N   0  0  0  0  0  0  0  0  0  0  0  0
   -1.2040   -0.9871    0.0771 C   0  0  1  0  0  0  0  0  0  0  0  0
   -0.2112   -0.8261    1.2348 C   0  0  0  0  0  0  0  0  0  0  0  0
    0.7941    0.2033    0.8961 C   0  0  0  0  0  0  0  0  0  0  0  0
    0.6782    1.5613    1.1696 C   0  0  0  0  0  0  0  0  0  0  0  0
    1.7928    2.1166    0.7011 N   0  0  0  0  0  0  0  0  0  0  0  0
    2.6004    1.1839    0.1497 C   0  0  0  0  0  0  0  0  0  0  0  0
    1.9676   -0.0011    0.2775 N   0  0  0  0  0  0  0  0  0  0  0  0
   -1.9073    0.2901   -0.1269 C   0  0  0  0  0  0  0  0  0  0  0  0
   -2.5614    0.7950    0.8060 O   0  0  0  0  0  0  0  0  0  0  0  0
   -1.8358    0.9179   -1.3511 O   0  0  0  0  0  0  0  0  0  0  0  0
    0.3794   -1.8923   -0.9343 H   0  0  0  0  0  0  0  0  0  0  0  0
   -1.1275   -2.0839   -1.6459 H   0  0  0  0  0  0  0  0  0  0  0  0
   -1.9131   -1.8089    0.3698 H   0  0  0  0  0  0  0  0  0  0  0  0
   -0.7922   -0.5784    2.1478 H   0  0  0  0  0  0  0  0  0  0  0  0
    0.2906   -1.8067    1.4130 H   0  0  0  0  0  0  0  0  0  0  0  0
   -0.1457    2.0268    1.6550 H   0  0  0  0  0  0  0  0  0  0  0  0
    3.5679    1.3332   -0.3098 H   0  0  0  0  0  0  0  0  0  0  0  0
    2.3882   -0.8975   -0.0748 H   0  0  0  0  0  0  0  0  0  0  0  0
   -2.2500    1.8445   -1.5264 H   0  0  0  0  0  0  0  0  0  0  0  0
  1  2  1  0
  2  3  1  0
  3  4  1  0
  4  5  2  0
  5  6  1  0
  6  7  2  0
  7  8  1  0
  2  9  1  0
  9 10  2  0
  9 11  1  0
  8  4  1  0
  1 12  1  0
  1 13  1  0
  2 14  1  1
  3 15  1  0
  3 16  1  0
  5 17  1  0
  7 18  1  0
  8 19  1  0
 11 20  1  0
M  END
$$$$

     RDKit          3D

 20 20  0  0  0  0  0  0  0  0999 V2000
   -2.3009   -1.2756   -0.2359 N   0  0  0  0  0  0  0  0  0  0  0  0
   -1.2107   -0.5871    0.3463 C   0  0  1  0  0  0  0  0  0  0  0  0
   -0.0041   -0.7329   -0.5522 C   0  0  0  0  0  0  0  0  0  0  0  0
    1.1910   -0.0537   -0.0426 C   0  0  0  0  0  0  0  0  0  0  0  0
    1.6021    1.2531   -0.2798 C   0  0  0  0  0  0  0  0  0  0  0  0
    2.7503    1.4378    0.3899 N   0  0  0  0  0  0  0  0  0  0  0  0
    3.0894    0.3167    1.0396 C   0  0  0  0  0  0  0  0  0  0  0  0
    2.1282   -0.5786    0.7638 N   0  0  0  0  0  0  0  0  0  0  0  0
   -1.5587    0.8186    0.5835 C   0  0  0  0  0  0  0  0  0  0  0  0
   -0.7723    1.6572    1.0933 O   0  0  0  0  0  0  0  0  0  0  0  0
   -2.8275    1.3061    0.2404 O   0  0  0  0  0  0  0  0  0  0  0  0
   -2.3590   -1.2992   -1.2501 H   0  0  0  0  0  0  0  0  0  0  0  0
   -2.7827   -1.9676    0.3071 H   0  0  0  0  0  0  0  0  0  0  0  0
   -0.9546   -1.0928    1.3136 H   0  0  0  0  0  0  0  0  0  0  0  0
    0.1509   -1.8263   -0.7080 H   0  0  0  0  0  0  0  0  0  0  0  0
   -0.2875   -0.2908   -1.5391 H   0  0  0  0  0  0  0  0  0  0  0  0
    1.0984    2.0006   -0.8922 H   0  0  0  0  0  0  0  0  0  0  0  0
    3.9690    0.2070    1.6492 H   0  0  0  0  0  0  0  0  0  0  0  0
    2.1487   -1.5624    1.1553 H   0  0  0  0  0  0  0  0  0  0  0  0
   -3.0703    2.2699    0.4163 H   0  0  0  0  0  0  0  0  0  0  0  0
  1  2  1  0
  2  3  1  0
  3  4  1  0
  4  5  2  0
  5  6  1  0
  6  7  2  0
  7  8  1  0
  2  9  1  0
  9 10  2  0
  9 11  1  0
  8  4  1  0
  1 12  1  0
  1 13  1  0
  2 14  1  1
  3 15  1  0
  3 16  1  0
  5 17  1  0
  7 18  1  0
  8 19  1  0
 11 20  1  0
M  END
$$$$

     RDKit          3D

 20 20  0  0  0  0  0  0  0  0999 V2000
   -2.2920   -1.4802    0.6883 N   0  0  0  0  0  0  0  0  0  0  0  0
   -1.2498   -0.4697    0.5776 C   0  0  1  0  0  0  0  0  0  0  0  0
   -0.0804   -1.0990   -0.1254 C   0  0  0  0  0  0  0  0  0  0  0  0
    1.0334   -0.1375   -0.2829 C   0  0  0  0  0  0  0  0  0  0  0  0
    1.3044    0.7207   -1.3287 C   0  0  0  0  0  0  0  0  0  0  0  0
    2.4086    1.3883   -1.0162 N   0  0  0  0  0  0  0  0  0  0  0  0
    2.8606    1.0013    0.1793 C   0  0  0  0  0  0  0  0  0  0  0  0
    2.0216    0.0731    0.6223 N   0  0  0  0  0  0  0  0  0  0  0  0
   -1.7621    0.6844   -0.1771 C   0  0  0  0  0  0  0  0  0  0  0  0
   -2.9285    0.6585   -0.6816 O   0  0  0  0  0  0  0  0  0  0  0  0
   -1.0079    1.8302   -0.3661 O   0  0  0  0  0  0  0  0  0  0  0  0
   -2.8298   -1.3282    1.5581 H   0  0  0  0  0  0  0  0  0  0  0  0
   -1.8679   -2.4196    0.6655 H   0  0  0  0  0  0  0  0  0  0  0  0
   -0.9828   -0.1891    1.6136 H   0  0  0  0  0  0  0  0  0  0  0  0
   -0.3648   -1.4239   -1.1496 H   0  0  0  0  0  0  0  0  0  0  0  0
    0.3210   -1.9732    0.4123 H   0  0  0  0  0  0  0  0  0  0  0  0
    0.7238    0.8204   -2.2266 H   0  0  0  0  0  0  0  0  0  0  0  0
    3.7426    1.3668    0.6999 H   0  0  0  0  0  0  0  0  0  0  0  0
    2.0855   -0.4398    1.5318 H   0  0  0  0  0  0  0  0  0  0  0  0
   -1.1355    2.4166   -1.1946 H   0  0  0  0  0  0  0  0  0  0  0  0
  1  2  1  0
  2  3  1  0
  3  4  1  0
  4  5  2  0
  5  6  1  0
  6  7  2  0
  7  8  1  0
  2  9  1  0
  9 10  2  0
  9 11  1  0
  8  4  1  0
  1 12  1  0
  1 13  1  0
  2 14  1  1
  3 15  1  0
  3 16  1  0
  5 17  1  0
  7 18  1  0
  8 19  1  0
 11 20  1  0
M  END
$$$$

     RDKit          3D

 20 20  0  0  0  0  0  0  0  0999 V2000
    2.3139    1.2011   -0.7249 N   0  0  0  0  0  0  0  0  0  0  0  0
    1.1626    0.6253   -0.0579 C   0  0  1  0  0  0  0  0  0  0  0  0
    0.0234    0.6183   -1.0503 C   0  0  0  0  0  0  0  0  0  0  0  0
   -1.2138    0.0568   -0.5016 C   0  0  0  0  0  0  0  0  0  0  0  0
   -1.6471   -1.2496   -0.5106 C   0  0  0  0  0  0  0  0  0  0  0  0
   -2.8601   -1.3173    0.1149 N   0  0  0  0  0  0  0  0  0  0  0  0
   -3.1719   -0.0751    0.5041 C   0  0  0  0  0  0  0  0  0  0  0  0
   -2.1760    0.7485    0.1298 N   0  0  0  0  0  0  0  0  0  0  0  0
    1.4974   -0.7343    0.4290 C   0  0  0  0  0  0  0  0  0  0  0  0
    0.6635   -1.4467    1.0437 O   0  0  0  0  0  0  0  0  0  0  0  0
    2.7547   -1.2445    0.2084 O   0  0  0  0  0  0  0  0  0  0  0  0
    3.1177    1.3667   -0.1075 H   0  0  0  0  0  0  0  0  0  0  0  0
    2.5589    0.6248   -1.5423 H   0  0  0  0  0  0  0  0  0  0  0  0
    0.9091    1.2284    0.8515 H   0  0  0  0  0  0  0  0  0  0  0  0
   -0.0921    1.6647   -1.4068 H   0  0  0  0  0  0  0  0  0  0  0  0
    0.3971    0.0472   -1.9423 H   0  0  0  0  0  0  0  0  0  0  0  0
   -1.1394   -2.1087   -0.9333 H   0  0  0  0  0  0  0  0  0  0  0  0
   -4.0623    0.1989    1.0219 H   0  0  0  0  0  0  0  0  0  0  0  0
   -2.1999    1.7736    0.3281 H   0  0  0  0  0  0  0  0  0  0  0  0
    3.1645   -1.9781    0.8015 H   0  0  0  0  0  0  0  0  0  0  0  0
  1  2  1  0
  2  3  1  0
  3  4  1  0
  4  5  2  0
  5  6  1  0
  6  7  2  0
  7  8  1  0
  2  9  1  0
  9 10  2  0
  9 11  1  0
  8  4  1  0
  1 12  1  0
  1 13  1  0
  2 14  1  1
  3 15  1  0
  3 16  1  0
  5 17  1  0
  7 18  1  0
  8 19  1  0
 11 20  1  0
M  END
$$$$

     RDKit          3D

 20 20  0  0  0  0  0  0  0  0999 V2000
   -1.2997   -0.8869    0.9839 N   0  0  0  0  0  0  0  0  0  0  0  0
   -0.9852    0.3944    0.4229 C   0  0  1  0  0  0  0  0  0  0  0  0
   -0.1084    0.2619   -0.8114 C   0  0  0  0  0  0  0  0  0  0  0  0
    1.1474   -0.4188   -0.4032 C   0  0  0  0  0  0  0  0  0  0  0  0
    1.3777   -1.7735   -0.4009 C   0  0  0  0  0  0  0  0  0  0  0  0
    2.6336   -1.9337    0.0383 N   0  0  0  0  0  0  0  0  0  0  0  0
    3.1472   -0.7085    0.2940 C   0  0  0  0  0  0  0  0  0  0  0  0
    2.2337    0.2447    0.0239 N   0  0  0  0  0  0  0  0  0  0  0  0
   -2.2380    1.1021    0.0868 C   0  0  0  0  0  0  0  0  0  0  0  0
   -3.3313    0.5350    0.3177 O   0  0  0  0  0  0  0  0  0  0  0  0
   -2.2242    2.3680   -0.4730 O   0  0  0  0  0  0  0  0  0  0  0  0
   -1.4559   -1.6324    0.2874 H   0  0  0  0  0  0  0  0  0  0  0  0
   -2.1640   -0.7942    1.5454 H   0  0  0  0  0  0  0  0  0  0  0  0
   -0.4494    1.0178    1.1786 H   0  0  0  0  0  0  0  0  0  0  0  0
   -0.6084   -0.3031   -1.6106 H   0  0  0  0  0  0  0  0  0  0  0  0
    0.1274    1.2773   -1.1921 H   0  0  0  0  0  0  0  0  0  0  0  0
    0.7204   -2.5874   -0.6837 H   0  0  0  0  0  0  0  0  0  0  0  0
    4.1375   -0.4589    0.6625 H   0  0  0  0  0  0  0  0  0  0  0  0
    2.3589    1.2896    0.1303 H   0  0  0  0  0  0  0  0  0  0  0  0
   -3.0195    3.0066   -0.3969 H   0  0  0  0  0  0  0  0  0  0  0  0
  1  2  1  0
  2  3  1  0
  3  4  1  0
  4  5  2  0
  5  6  1  0
  6  7  2  0
  7  8  1  0
  2  9  1  0
  9 10  2  0
  9 11  1  0
  8  4  1  0
  1 12  1  0
  1 13  1  0
  2 14  1  1
  3 15  1  0
  3 16  1  0
  5 17  1  0
  7 18  1  0
  8 19  1  0
 11 20  1  0
M  END
$$$$

     RDKit          3D

 20 20  0  0  0  0  0  0  0  0999 V2000
   -2.1343   -1.8552    0.3233 N   0  0  0  0  0  0  0  0  0  0  0  0
   -0.9774   -0.9669    0.5007 C   0  0  1  0  0  0  0  0  0  0  0  0
   -0.2727   -0.7488   -0.8035 C   0  0  0  0  0  0  0  0  0  0  0  0
    0.9037    0.1307   -0.7269 C   0  0  0  0  0  0  0  0  0  0  0  0
    0.8488    1.4989   -0.9074 C   0  0  0  0  0  0  0  0  0  0  0  0
    2.0929    1.9675   -0.7680 N   0  0  0  0  0  0  0  0  0  0  0  0
    2.8861    0.9286   -0.5112 C   0  0  0  0  0  0  0  0  0  0  0  0
    2.1846   -0.2080   -0.4803 N   0  0  0  0  0  0  0  0  0  0  0  0
   -1.3964    0.2968    1.1543 C   0  0  0  0  0  0  0  0  0  0  0  0
   -2.6149    0.5201    1.4544 O   0  0  0  0  0  0  0  0  0  0  0  0
   -0.4997    1.3005    1.4758 O   0  0  0  0  0  0  0  0  0  0  0  0
   -2.7220   -1.7214    1.1915 H   0  0  0  0  0  0  0  0  0  0  0  0
   -2.7337   -1.5373   -0.4754 H   0  0  0  0  0  0  0  0  0  0  0  0
   -0.2738   -1.5351    1.1636 H   0  0  0  0  0  0  0  0  0  0  0  0
    0.0430   -1.7417   -1.1836 H   0  0  0  0  0  0  0  0  0  0  0  0
   -0.9755   -0.3357   -1.5803 H   0  0  0  0  0  0  0  0  0  0  0  0
   -0.0681    2.0721   -1.1259 H   0  0  0  0  0  0  0  0  0  0  0  0
    3.9587    1.0018   -0.3495 H   0  0  0  0  0  0  0  0  0  0  0  0
    2.5287   -1.1939   -0.3017 H   0  0  0  0  0  0  0  0  0  0  0  0
   -0.7779    2.1272    1.9503 H   0  0  0  0  0  0  0  0  0  0  0  0
  1  2  1  0
  2  3  1  0
  3  4  1  0
  4  5  2  0
  5  6  1  0
  6  7  2  0
  7  8  1  0
  2  9  1  0
  9 10  2  0
  9 11  1  0
  8  4  1  0
  1 12  1  0
  1 13  1  0
  2 14  1  1
  3 15  1  0
  3 16  1  0
  5 17  1  0
  7 18  1  0
  8 19  1  0
 11 20  1  0
M  END
$$$$

     RDKit          3D

 20 20  0  0  0  0  0  0  0  0999 V2000
   -2.2538   -1.3191   -0.6544 N   0  0  0  0  0  0  0  0  0  0  0  0
   -1.1782   -0.6357    0.1072 C   0  0  1  0  0  0  0  0  0  0  0  0
    0.0091   -0.6877   -0.7788 C   0  0  0  0  0  0  0  0  0  0  0  0
    1.2562   -0.1269   -0.2626 C   0  0  0  0  0  0  0  0  0  0  0  0
    1.6369    0.3152    0.9637 C   0  0  0  0  0  0  0  0  0  0  0  0
    2.9101    0.7598    0.8583 N   0  0  0  0  0  0  0  0  0  0  0  0
    3.3233    0.6049   -0.3896 C   0  0  0  0  0  0  0  0  0  0  0  0
    2.3272    0.0658   -1.0843 N   0  0  0  0  0  0  0  0  0  0  0  0
   -1.6686    0.7617    0.3345 C   0  0  0  0  0  0  0  0  0  0  0  0
   -1.0026    1.6393    0.9129 O   0  0  0  0  0  0  0  0  0  0  0  0
   -2.9339    1.1317   -0.1130 O   0  0  0  0  0  0  0  0  0  0  0  0
   -2.6362   -0.6893   -1.3910 H   0  0  0  0  0  0  0  0  0  0  0  0
   -2.9719   -1.6954   -0.0124 H   0  0  0  0  0  0  0  0  0  0  0  0
   -1.0955   -1.1524    1.0669 H   0  0  0  0  0  0  0  0  0  0  0  0
   -0.2752   -0.1861   -1.7473 H   0  0  0  0  0  0  0  0  0  0  0  0
    0.2001   -1.7772   -1.0012 H   0  0  0  0  0  0  0  0  0  0  0  0
    1.0496    0.3037    1.8673 H   0  0  0  0  0  0  0  0  0  0  0  0
    4.3168    0.8754   -0.7820 H   0  0  0  0  0  0  0  0  0  0  0  0
    2.3918   -0.1593   -2.0931 H   0  0  0  0  0  0  0  0  0  0  0  0
   -3.4051    1.9716    0.2490 H   0  0  0  0  0  0  0  0  0  0  0  0
  1  2  1  0
  2  3  1  0
  3  4  1  0
  4  5  2  0
  5  6  1  0
  6  7  2  0
  7  8  1  0
  2  9  1  0
  9 10  2  0
  9 11  1  0
  8  4  1  0
  1 12  1  0
  1 13  1  0
  2 14  1  1
  3 15  1  0
  3 16  1  0
  5 17  1  0
  7 18  1  0
  8 19  1  0
 11 20  1  0
M  END
$$$$

     RDKit          3D

 20 20  0  0  0  0  0  0  0  0999 V2000
   -2.4380   -1.2595   -0.0346 N   0  0  0  0  0  0  0  0  0  0  0  0
   -1.1461   -0.6815    0.3100 C   0  0  1  0  0  0  0  0  0  0  0  0
   -0.1870   -0.7297   -0.8275 C   0  0  0  0  0  0  0  0  0  0  0  0
    1.1352   -0.1443   -0.5027 C   0  0  0  0  0  0  0  0  0  0  0  0
    2.2196   -0.8096    0.0390 C   0  0  0  0  0  0  0  0  0  0  0  0
    3.1952    0.0929    0.1570 N   0  0  0  0  0  0  0  0  0  0  0  0
    2.7943    1.2940   -0.2784 C   0  0  0  0  0  0  0  0  0  0  0  0
    1.5260    1.1287   -0.6799 N   0  0  0  0  0  0  0  0  0  0  0  0
   -1.3328    0.6688    0.8551 C   0  0  0  0  0  0  0  0  0  0  0  0
   -0.3516    1.3443    1.2593 O   0  0  0  0  0  0  0  0  0  0  0  0
   -2.5745    1.2816    0.9608 O   0  0  0  0  0  0  0  0  0  0  0  0
   -2.9923   -1.2702    0.8585 H   0  0  0  0  0  0  0  0  0  0  0  0
   -2.2602   -2.2475   -0.3597 H   0  0  0  0  0  0  0  0  0  0  0  0
   -0.7338   -1.3552    1.1169 H   0  0  0  0  0  0  0  0  0  0  0  0
   -0.6170   -0.1035   -1.6640 H   0  0  0  0  0  0  0  0  0  0  0  0
   -0.1070   -1.7459   -1.2418 H   0  0  0  0  0  0  0  0  0  0  0  0
    2.2139   -1.8585    0.2951 H   0  0  0  0  0  0  0  0  0  0  0  0
    3.3489    2.2214   -0.3133 H   0  0  0  0  0  0  0  0  0  0  0  0
    0.9477    1.9005   -1.0748 H   0  0  0  0  0  0  0  0  0  0  0  0
   -2.6405    2.2731    1.1250 H   0  0  0  0  0  0  0  0  0  0  0  0
  1  2  1  0
  2  3  1  0
  3  4  1  0
  4  5  2  0
  5  6  1  0
  6  7  2  0
  7  8  1  0
  2  9  1  0
  9 10  2  0
  9 11  1  0
  8  4  1  0
  1 12  1  0
  1 13  1  0
  2 14  1  1
  3 15  1  0
  3 16  1  0
  5 17  1  0
  7 18  1  0
  8 19  1  0
 11 20  1  0
M  END
$$$$

     RDKit          3D

 20 20  0  0  0  0  0  0  0  0999 V2000
   -2.1620   -1.7331    0.4061 N   0  0  0  0  0  0  0  0  0  0  0  0
   -1.1340   -0.7322    0.5919 C   0  0  1  0  0  0  0  0  0  0  0  0
   -0.0590   -0.9915   -0.4215 C   0  0  0  0  0  0  0  0  0  0  0  0
    1.0594   -0.0625   -0.3673 C   0  0  0  0  0  0  0  0  0  0  0  0
    1.1436    1.1190   -1.0677 C   0  0  0  0  0  0  0  0  0  0  0  0
    2.2973    1.7094   -0.7786 N   0  0  0  0  0  0  0  0  0  0  0  0
    2.9472    0.9265    0.0913 C   0  0  0  0  0  0  0  0  0  0  0  0
    2.1931   -0.1531    0.3420 N   0  0  0  0  0  0  0  0  0  0  0  0
   -1.7307    0.5993    0.5137 C   0  0  0  0  0  0  0  0  0  0  0  0
   -2.9645    0.6918    0.3108 O   0  0  0  0  0  0  0  0  0  0  0  0
   -1.0291    1.7904    0.6483 O   0  0  0  0  0  0  0  0  0  0  0  0
   -2.0320   -2.2763   -0.4754 H   0  0  0  0  0  0  0  0  0  0  0  0
   -3.1180   -1.3417    0.3895 H   0  0  0  0  0  0  0  0  0  0  0  0
   -0.7489   -0.8686    1.6251 H   0  0  0  0  0  0  0  0  0  0  0  0
   -0.5451   -1.0576   -1.4256 H   0  0  0  0  0  0  0  0  0  0  0  0
    0.3347   -2.0177   -0.2215 H   0  0  0  0  0  0  0  0  0  0  0  0
    0.4177    1.5608   -1.7652 H   0  0  0  0  0  0  0  0  0  0  0  0
    3.9350    1.1656    0.5077 H   0  0  0  0  0  0  0  0  0  0  0  0
    2.4706   -0.9462    1.0043 H   0  0  0  0  0  0  0  0  0  0  0  0
   -1.2753    2.6177    0.0921 H   0  0  0  0  0  0  0  0  0  0  0  0
  1  2  1  0
  2  3  1  0
  3  4  1  0
  4  5  2  0
  5  6  1  0
  6  7  2  0
  7  8  1  0
  2  9  1  0
  9 10  2  0
  9 11  1  0
  8  4  1  0
  1 12  1  0
  1 13  1  0
  2 14  1  1
  3 15  1  0
  3 16  1  0
  5 17  1  0
  7 18  1  0
  8 19  1  0
 11 20  1  0
M  END
$$$$

     RDKit          3D

 20 20  0  0  0  0  0  0  0  0999 V2000
   -1.3442   -1.0259    0.5793 N   0  0  0  0  0  0  0  0  0  0  0  0
   -0.9969    0.3746    0.5332 C   0  0  1  0  0  0  0  0  0  0  0  0
    0.0035    0.6100   -0.5807 C   0  0  0  0  0  0  0  0  0  0  0  0
    1.2372   -0.1649   -0.3810 C   0  0  0  0  0  0  0  0  0  0  0  0
    1.5007   -1.4324   -0.8312 C   0  0  0  0  0  0  0  0  0  0  0  0
    2.7416   -1.7828   -0.4385 N   0  0  0  0  0  0  0  0  0  0  0  0
    3.2700   -0.7568    0.2543 C   0  0  0  0  0  0  0  0  0  0  0  0
    2.3513    0.2186    0.2838 N   0  0  0  0  0  0  0  0  0  0  0  0
   -2.1971    1.2265    0.2801 C   0  0  0  0  0  0  0  0  0  0  0  0
   -2.0300    2.4719    0.2164 O   0  0  0  0  0  0  0  0  0  0  0  0
   -3.4564    0.6768    0.1191 O   0  0  0  0  0  0  0  0  0  0  0  0
   -1.3230   -1.3941   -0.3947 H   0  0  0  0  0  0  0  0  0  0  0  0
   -2.2384   -1.2210    1.0612 H   0  0  0  0  0  0  0  0  0  0  0  0
   -0.5581    0.7002    1.4820 H   0  0  0  0  0  0  0  0  0  0  0  0
   -0.5034    0.3406   -1.5432 H   0  0  0  0  0  0  0  0  0  0  0  0
    0.1867    1.7085   -0.6448 H   0  0  0  0  0  0  0  0  0  0  0  0
    0.8684   -2.0935   -1.4069 H   0  0  0  0  0  0  0  0  0  0  0  0
    4.2650   -0.7854    0.6821 H   0  0  0  0  0  0  0  0  0  0  0  0
    2.4739    1.1510    0.7551 H   0  0  0  0  0  0  0  0  0  0  0  0
   -4.2508    1.1782    0.5435 H   0  0  0  0  0  0  0  0  0  0  0  0
  1  2  1  0
  2  3  1  0
  3  4  1  0
  4  5  2  0
  5  6  1  0
  6  7  2  0
  7  8  1  0
  2  9  1  0
  9 10  2  0
  9 11  1  0
  8  4  1  0
  1 12  1  0
  1 13  1  0
  2 14  1  1
  3 15  1  0
  3 16  1  0
  5 17  1  0
  7 18  1  0
  8 19  1  0
 11 20  1  0
M  END
$$$$

     RDKit          3D

 20 20  0  0  0  0  0  0  0  0999 V2000
   -1.3562   -1.1784   -0.8019 N   0  0  0  0  0  0  0  0  0  0  0  0
   -1.4341   -0.4132    0.4263 C   0  0  1  0  0  0  0  0  0  0  0  0
   -0.2430   -0.7035    1.3096 C   0  0  0  0  0  0  0  0  0  0  0  0
    1.0400   -0.3631    0.6599 C   0  0  0  0  0  0  0  0  0  0  0  0
    1.7905   -1.2223   -0.1143 C   0  0  0  0  0  0  0  0  0  0  0  0
    2.8807   -0.5503   -0.5239 N   0  0  0  0  0  0  0  0  0  0  0  0
    2.8454    0.6948   -0.0389 C   0  0  0  0  0  0  0  0  0  0  0  0
    1.7086    0.7880    0.6837 N   0  0  0  0  0  0  0  0  0  0  0  0
   -1.5935    1.0229    0.1295 C   0  0  0  0  0  0  0  0  0  0  0  0
   -1.6475    1.4601   -1.0490 O   0  0  0  0  0  0  0  0  0  0  0  0
   -1.6907    1.9525    1.1523 O   0  0  0  0  0  0  0  0  0  0  0  0
   -2.1815   -1.8367   -0.8923 H   0  0  0  0  0  0  0  0  0  0  0  0
   -1.3901   -0.5679   -1.6485 H   0  0  0  0  0  0  0  0  0  0  0  0
   -2.3335   -0.7636    0.9958 H   0  0  0  0  0  0  0  0  0  0  0  0
   -0.3069   -1.7984    1.5582 H   0  0  0  0  0  0  0  0  0  0  0  0
   -0.3851   -0.1819    2.2806 H   0  0  0  0  0  0  0  0  0  0  0  0
    1.5609   -2.2454   -0.3562 H   0  0  0  0  0  0  0  0  0  0  0  0
    3.5767    1.4758   -0.1907 H   0  0  0  0  0  0  0  0  0  0  0  0
    1.4160    1.6413    1.1786 H   0  0  0  0  0  0  0  0  0  0  0  0
   -2.2567    2.7892    1.0916 H   0  0  0  0  0  0  0  0  0  0  0  0
  1  2  1  0
  2  3  1  0
  3  4  1  0
  4  5  2  0
  5  6  1  0
  6  7  2  0
  7  8  1  0
  2  9  1  0
  9 10  2  0
  9 11  1  0
  8  4  1  0
  1 12  1  0
  1 13  1  0
  2 14  1  1
  3 15  1  0
  3 16  1  0
  5 17  1  0
  7 18  1  0
  8 19  1  0
 11 20  1  0
M  END
$$$$

     RDKit          3D

 20 20  0  0  0  0  0  0  0  0999 V2000
    0.9034    0.6987   -1.2567 N   0  0  0  0  0  0  0  0  0  0  0  0
    1.1414    0.2956    0.1004 C   0  0  1  0  0  0  0  0  0  0  0  0
    0.2538   -0.8932    0.3965 C   0  0  0  0  0  0  0  0  0  0  0  0
   -1.1603   -0.4191    0.1939 C   0  0  0  0  0  0  0  0  0  0  0  0
   -1.9048   -0.4447   -0.9437 C   0  0  0  0  0  0  0  0  0  0  0  0
   -3.1096    0.0805   -0.6623 N   0  0  0  0  0  0  0  0  0  0  0  0
   -3.1475    0.4388    0.6271 C   0  0  0  0  0  0  0  0  0  0  0  0
   -1.9527    0.1325    1.1514 N   0  0  0  0  0  0  0  0  0  0  0  0
    2.5561    0.0233    0.3043 C   0  0  0  0  0  0  0  0  0  0  0  0
    2.9953   -0.3435    1.4116 O   0  0  0  0  0  0  0  0  0  0  0  0
    3.4395    0.1715   -0.7455 O   0  0  0  0  0  0  0  0  0  0  0  0
    0.3533    1.5565   -1.3707 H   0  0  0  0  0  0  0  0  0  0  0  0
    0.6834   -0.0722   -1.9068 H   0  0  0  0  0  0  0  0  0  0  0  0
    0.8068    1.1022    0.8058 H   0  0  0  0  0  0  0  0  0  0  0  0
    0.3813   -1.2565    1.4435 H   0  0  0  0  0  0  0  0  0  0  0  0
    0.4783   -1.6982   -0.3105 H   0  0  0  0  0  0  0  0  0  0  0  0
   -1.5973   -0.8196   -1.9183 H   0  0  0  0  0  0  0  0  0  0  0  0
   -3.9527    0.8862    1.1764 H   0  0  0  0  0  0  0  0  0  0  0  0
   -1.6048    0.2646    2.1331 H   0  0  0  0  0  0  0  0  0  0  0  0
    4.4369    0.2966   -0.6294 H   0  0  0  0  0  0  0  0  0  0  0  0
  1  2  1  0
  2  3  1  0
  3  4  1  0
  4  5  2  0
  5  6  1  0
  6  7  2  0
  7  8  1  0
  2  9  1  0
  9 10  2  0
  9 11  1  0
  8  4  1  0
  1 12  1  0
  1 13  1  0
  2 14  1  1
  3 15  1  0
  3 16  1  0
  5 17  1  0
  7 18  1  0
  8 19  1  0
 11 20  1  0
M  END
$$$$

     RDKit          3D

 20 20  0  0  0  0  0  0  0  0999 V2000
   -0.9002   -1.7013   -0.7316 N   0  0  0  0  0  0  0  0  0  0  0  0
   -1.2843   -0.6785    0.2056 C   0  0  1  0  0  0  0  0  0  0  0  0
   -0.1725   -0.3049    1.1577 C   0  0  0  0  0  0  0  0  0  0  0  0
    1.0192    0.2104    0.4470 C   0  0  0  0  0  0  0  0  0  0  0  0
    1.3056    1.5165    0.1063 C   0  0  0  0  0  0  0  0  0  0  0  0
    2.4881    1.5613   -0.5319 N   0  0  0  0  0  0  0  0  0  0  0  0
    2.9520    0.3013   -0.5987 C   0  0  0  0  0  0  0  0  0  0  0  0
    2.0680   -0.4995   -0.0113 N   0  0  0  0  0  0  0  0  0  0  0  0
   -1.8861    0.4957   -0.4617 C   0  0  0  0  0  0  0  0  0  0  0  0
   -2.0187    0.5350   -1.7036 O   0  0  0  0  0  0  0  0  0  0  0  0
   -2.3103    1.5676    0.2884 O   0  0  0  0  0  0  0  0  0  0  0  0
   -1.5538   -1.6465   -1.5530 H   0  0  0  0  0  0  0  0  0  0  0  0
   -1.0169   -2.6390   -0.2811 H   0  0  0  0  0  0  0  0  0  0  0  0
   -2.0959   -1.1252    0.8464 H   0  0  0  0  0  0  0  0  0  0  0  0
   -0.5832    0.4471    1.8601 H   0  0  0  0  0  0  0  0  0  0  0  0
    0.1222   -1.2176    1.6937 H   0  0  0  0  0  0  0  0  0  0  0  0
    0.6856    2.3997    0.3106 H   0  0  0  0  0  0  0  0  0  0  0  0
    3.9007   -0.0108   -1.0607 H   0  0  0  0  0  0  0  0  0  0  0  0
    2.1611   -1.5434    0.0889 H   0  0  0  0  0  0  0  0  0  0  0  0
   -2.8806    2.3321   -0.0710 H   0  0  0  0  0  0  0  0  0  0  0  0
  1  2  1  0
  2  3  1  0
  3  4  1  0
  4  5  2  0
  5  6  1  0
  6  7  2  0
  7  8  1  0
  2  9  1  0
  9 10  2  0
  9 11  1  0
  8  4  1  0
  1 12  1  0
  1 13  1  0
  2 14  1  1
  3 15  1  0
  3 16  1  0
  5 17  1  0
  7 18  1  0
  8 19  1  0
 11 20  1  0
M  END
$$$$

     RDKit          3D

 20 20  0  0  0  0  0  0  0  0999 V2000
   -1.4428   -1.5928   -0.3866 N   0  0  0  0  0  0  0  0  0  0  0  0
   -1.4935   -0.4163    0.4234 C   0  0  1  0  0  0  0  0  0  0  0  0
   -0.2853   -0.2502    1.3110 C   0  0  0  0  0  0  0  0  0  0  0  0
    0.9689   -0.1563    0.5468 C   0  0  0  0  0  0  0  0  0  0  0  0
    1.8143   -1.1793    0.1498 C   0  0  0  0  0  0  0  0  0  0  0  0
    2.8467   -0.6700   -0.5262 N   0  0  0  0  0  0  0  0  0  0  0  0
    2.6849    0.6711   -0.5747 C   0  0  0  0  0  0  0  0  0  0  0  0
    1.5423    0.9673    0.0800 N   0  0  0  0  0  0  0  0  0  0  0  0
   -1.6852    0.7605   -0.4537 C   0  0  0  0  0  0  0  0  0  0  0  0
   -1.7756    0.6328   -1.6879 O   0  0  0  0  0  0  0  0  0  0  0  0
   -1.7640    2.0117    0.1083 O   0  0  0  0  0  0  0  0  0  0  0  0
   -1.3925   -1.4114   -1.4082 H   0  0  0  0  0  0  0  0  0  0  0  0
   -0.7897   -2.3188   -0.0528 H   0  0  0  0  0  0  0  0  0  0  0  0
   -2.4088   -0.4841    1.0582 H   0  0  0  0  0  0  0  0  0  0  0  0
   -0.4618    0.6960    1.9016 H   0  0  0  0  0  0  0  0  0  0  0  0
   -0.2961   -1.0742    2.0532 H   0  0  0  0  0  0  0  0  0  0  0  0
    1.6351   -2.2087    0.3694 H   0  0  0  0  0  0  0  0  0  0  0  0
    3.3809    1.3304   -1.0648 H   0  0  0  0  0  0  0  0  0  0  0  0
    1.1586    1.9450    0.2044 H   0  0  0  0  0  0  0  0  0  0  0  0
   -2.2365    2.7473   -0.4090 H   0  0  0  0  0  0  0  0  0  0  0  0
  1  2  1  0
  2  3  1  0
  3  4  1  0
  4  5  2  0
  5  6  1  0
  6  7  2  0
  7  8  1  0
  2  9  1  0
  9 10  2  0
  9 11  1  0
  8  4  1  0
  1 12  1  0
  1 13  1  0
  2 14  1  1
  3 15  1  0
  3 16  1  0
  5 17  1  0
  7 18  1  0
  8 19  1  0
 11 20  1  0
M  END
$$$$

     RDKit          3D

 20 20  0  0  0  0  0  0  0  0999 V2000
    0.6940    0.5610    1.8499 N   0  0  0  0  0  0  0  0  0  0  0  0
    1.2548   -0.1510    0.7278 C   0  0  1  0  0  0  0  0  0  0  0  0
    0.2806   -1.1460    0.2027 C   0  0  0  0  0  0  0  0  0  0  0  0
   -0.9851   -0.5598   -0.2636 C   0  0  0  0  0  0  0  0  0  0  0  0
   -2.0153   -1.3207   -0.7874 C   0  0  0  0  0  0  0  0  0  0  0  0
   -3.0063   -0.4961   -1.1094 N   0  0  0  0  0  0  0  0  0  0  0  0
   -2.6616    0.7847   -0.8143 C   0  0  0  0  0  0  0  0  0  0  0  0
   -1.4174    0.7092   -0.2979 N   0  0  0  0  0  0  0  0  0  0  0  0
    1.8348    0.7352   -0.2954 C   0  0  0  0  0  0  0  0  0  0  0  0
    1.8440    1.9715   -0.2016 O   0  0  0  0  0  0  0  0  0  0  0  0
    2.3963    0.1566   -1.4154 O   0  0  0  0  0  0  0  0  0  0  0  0
    0.8873    0.0777    2.7510 H   0  0  0  0  0  0  0  0  0  0  0  0
    0.9237    1.5616    1.8673 H   0  0  0  0  0  0  0  0  0  0  0  0
    2.1210   -0.7429    1.1491 H   0  0  0  0  0  0  0  0  0  0  0  0
    0.7452   -1.6918   -0.6443 H   0  0  0  0  0  0  0  0  0  0  0  0
    0.0377   -1.8537    1.0217 H   0  0  0  0  0  0  0  0  0  0  0  0
   -2.0336   -2.3927   -0.9203 H   0  0  0  0  0  0  0  0  0  0  0  0
   -3.2410    1.6892   -0.9533 H   0  0  0  0  0  0  0  0  0  0  0  0
   -0.8557    1.5157    0.0336 H   0  0  0  0  0  0  0  0  0  0  0  0
    3.1964    0.5923   -1.9003 H   0  0  0  0  0  0  0  0  0  0  0  0
  1  2  1  0
  2  3  1  0
  3  4  1  0
  4  5  2  0
  5  6  1  0
  6  7  2  0
  7  8  1  0
  2  9  1  0
  9 10  2  0
  9 11  1  0
  8  4  1  0
  1 12  1  0
  1 13  1  0
  2 14  1  1
  3 15  1  0
  3 16  1  0
  5 17  1  0
  7 18  1  0
  8 19  1  0
 11 20  1  0
M  END
$$$$

     RDKit          3D

 20 20  0  0  0  0  0  0  0  0999 V2000
    0.8981   -1.8199    0.6636 N   0  0  0  0  0  0  0  0  0  0  0  0
    1.3286   -0.8361   -0.2828 C   0  0  1  0  0  0  0  0  0  0  0  0
    0.2259   -0.4963   -1.2572 C   0  0  0  0  0  0  0  0  0  0  0  0
   -0.9706    0.0463   -0.5626 C   0  0  0  0  0  0  0  0  0  0  0  0
   -2.0582   -0.6402   -0.0618 C   0  0  0  0  0  0  0  0  0  0  0  0
   -2.9256    0.2255    0.4941 N   0  0  0  0  0  0  0  0  0  0  0  0
   -2.4055    1.4646    0.3554 C   0  0  0  0  0  0  0  0  0  0  0  0
   -1.2302    1.3516   -0.2805 N   0  0  0  0  0  0  0  0  0  0  0  0
    1.8607    0.3486    0.4082 C   0  0  0  0  0  0  0  0  0  0  0  0
    1.8701    0.3491    1.6636 O   0  0  0  0  0  0  0  0  0  0  0  0
    2.3521    1.4644   -0.2637 O   0  0  0  0  0  0  0  0  0  0  0  0
    0.7741   -1.3816    1.5897 H   0  0  0  0  0  0  0  0  0  0  0  0
    0.0674   -2.3407    0.3130 H   0  0  0  0  0  0  0  0  0  0  0  0
    2.1775   -1.2804   -0.8593 H   0  0  0  0  0  0  0  0  0  0  0  0
   -0.0578   -1.4056   -1.8246 H   0  0  0  0  0  0  0  0  0  0  0  0
    0.6363    0.2231   -1.9915 H   0  0  0  0  0  0  0  0  0  0  0  0
   -2.2147   -1.7224   -0.0986 H   0  0  0  0  0  0  0  0  0  0  0  0
   -2.8987    2.3733    0.7175 H   0  0  0  0  0  0  0  0  0  0  0  0
   -0.6079    2.1395   -0.5233 H   0  0  0  0  0  0  0  0  0  0  0  0
    3.1785    1.9371    0.0903 H   0  0  0  0  0  0  0  0  0  0  0  0
  1  2  1  0
  2  3  1  0
  3  4  1  0
  4  5  2  0
  5  6  1  0
  6  7  2  0
  7  8  1  0
  2  9  1  0
  9 10  2  0
  9 11  1  0
  8  4  1  0
  1 12  1  0
  1 13  1  0
  2 14  1  6
  3 15  1  0
  3 16  1  0
  5 17  1  0
  7 18  1  0
  8 19  1  0
 11 20  1  0
M  END
$$$$

     RDKit          3D

 20 20  0  0  0  0  0  0  0  0999 V2000
   -2.3293   -1.3595   -0.7728 N   0  0  0  0  0  0  0  0  0  0  0  0
   -1.2237   -0.7523   -0.0526 C   0  0  1  0  0  0  0  0  0  0  0  0
   -0.1115   -0.4132   -1.0217 C   0  0  0  0  0  0  0  0  0  0  0  0
    1.0521    0.2119   -0.3732 C   0  0  0  0  0  0  0  0  0  0  0  0
    1.2861    1.5550   -0.1860 C   0  0  0  0  0  0  0  0  0  0  0  0
    2.4715    1.6523    0.4562 N   0  0  0  0  0  0  0  0  0  0  0  0
    2.9484    0.4255    0.6565 C   0  0  0  0  0  0  0  0  0  0  0  0
    2.0895   -0.4680    0.1537 N   0  0  0  0  0  0  0  0  0  0  0  0
   -1.7213    0.4722    0.6099 C   0  0  0  0  0  0  0  0  0  0  0  0
   -2.9096    0.8537    0.4509 O   0  0  0  0  0  0  0  0  0  0  0  0
   -0.9407    1.2735    1.4358 O   0  0  0  0  0  0  0  0  0  0  0  0
   -2.8862   -1.9332   -0.1119 H   0  0  0  0  0  0  0  0  0  0  0  0
   -1.9459   -1.9949   -1.4861 H   0  0  0  0  0  0  0  0  0  0  0  0
   -0.8885   -1.4857    0.7082 H   0  0  0  0  0  0  0  0  0  0  0  0
   -0.4943    0.2620   -1.8240 H   0  0  0  0  0  0  0  0  0  0  0  0
    0.2227   -1.3700   -1.4879 H   0  0  0  0  0  0  0  0  0  0  0  0
    0.6442    2.3561   -0.4986 H   0  0  0  0  0  0  0  0  0  0  0  0
    3.8901    0.2319    1.1542 H   0  0  0  0  0  0  0  0  0  0  0  0
    2.2081   -1.5010    0.1701 H   0  0  0  0  0  0  0  0  0  0  0  0
   -1.3619    1.9837    2.0193 H   0  0  0  0  0  0  0  0  0  0  0  0
  1  2  1  0
  2  3  1  0
  3  4  1  0
  4  5  2  0
  5  6  1  0
  6  7  2  0
  7  8  1  0
  2  9  1  0
  9 10  2  0
  9 11  1  0
  8  4  1  0
  1 12  1  0
  1 13  1  0
  2 14  1  1
  3 15  1  0
  3 16  1  0
  5 17  1  0
  7 18  1  0
  8 19  1  0
 11 20  1  0
M  END
$$$$

     RDKit          3D

 20 20  0  0  0  0  0  0  0  0999 V2000
    1.2391    0.9386    0.9533 N   0  0  0  0  0  0  0  0  0  0  0  0
    1.1119   -0.3649    0.3321 C   0  0  1  0  0  0  0  0  0  0  0  0
    0.0266   -0.3595   -0.7156 C   0  0  0  0  0  0  0  0  0  0  0  0
   -1.2961   -0.0082   -0.1339 C   0  0  0  0  0  0  0  0  0  0  0  0
   -1.6537    0.2953    1.1480 C   0  0  0  0  0  0  0  0  0  0  0  0
   -2.9956    0.5451    1.1636 N   0  0  0  0  0  0  0  0  0  0  0  0
   -3.4366    0.3915   -0.1019 C   0  0  0  0  0  0  0  0  0  0  0  0
   -2.4147    0.0595   -0.8779 N   0  0  0  0  0  0  0  0  0  0  0  0
    2.3958   -0.6791   -0.3503 C   0  0  0  0  0  0  0  0  0  0  0  0
    2.5063   -1.7898   -0.9682 O   0  0  0  0  0  0  0  0  0  0  0  0
    3.4843    0.2022   -0.3366 O   0  0  0  0  0  0  0  0  0  0  0  0
    1.7757    1.5682    0.3310 H   0  0  0  0  0  0  0  0  0  0  0  0
    1.6572    0.8722    1.9164 H   0  0  0  0  0  0  0  0  0  0  0  0
    0.9327   -1.1609    1.0662 H   0  0  0  0  0  0  0  0  0  0  0  0
    0.2628    0.3611   -1.5045 H   0  0  0  0  0  0  0  0  0  0  0  0
   -0.0725   -1.3635   -1.1696 H   0  0  0  0  0  0  0  0  0  0  0  0
   -0.9771    0.3245    1.9762 H   0  0  0  0  0  0  0  0  0  0  0  0
   -4.4694    0.5151   -0.4600 H   0  0  0  0  0  0  0  0  0  0  0  0
   -2.4964   -0.1191   -1.9218 H   0  0  0  0  0  0  0  0  0  0  0  0
    4.4197   -0.2284   -0.3464 H   0  0  0  0  0  0  0  0  0  0  0  0
  1  2  1  0
  2  3  1  0
  3  4  1  0
  4  5  2  0
  5  6  1  0
  6  7  2  0
  7  8  1  0
  2  9  1  0
  9 10  2  0
  9 11  1  0
  8  4  1  0
  1 12  1  0
  1 13  1  0
  2 14  1  1
  3 15  1  0
  3 16  1  0
  5 17  1  0
  7 18  1  0
  8 19  1  0
 11 20  1  0
M  END
$$$$

     RDKit          3D

 20 20  0  0  0  0  0  0  0  0999 V2000
   -2.3364   -1.5846    0.0045 N   0  0  0  0  0  0  0  0  0  0  0  0
   -1.2490   -0.6922    0.4151 C   0  0  1  0  0  0  0  0  0  0  0  0
   -0.0424   -1.0722   -0.3768 C   0  0  0  0  0  0  0  0  0  0  0  0
    1.1403   -0.2444   -0.0627 C   0  0  0  0  0  0  0  0  0  0  0  0
    2.0696   -0.5400    0.9391 C   0  0  0  0  0  0  0  0  0  0  0  0
    3.0001    0.4218    0.9298 N   0  0  0  0  0  0  0  0  0  0  0  0
    2.7022    1.3105   -0.0304 C   0  0  0  0  0  0  0  0  0  0  0  0
    1.5635    0.8968   -0.6335 N   0  0  0  0  0  0  0  0  0  0  0  0
   -1.6510    0.7023    0.1582 C   0  0  0  0  0  0  0  0  0  0  0  0
   -2.7728    0.9760   -0.3776 O   0  0  0  0  0  0  0  0  0  0  0  0
   -0.8121    1.7519    0.4967 O   0  0  0  0  0  0  0  0  0  0  0  0
   -3.1149   -1.5380    0.6991 H   0  0  0  0  0  0  0  0  0  0  0  0
   -2.6759   -1.3069   -0.9393 H   0  0  0  0  0  0  0  0  0  0  0  0
   -1.0842   -0.8956    1.4938 H   0  0  0  0  0  0  0  0  0  0  0  0
   -0.2954   -0.9378   -1.4688 H   0  0  0  0  0  0  0  0  0  0  0  0
    0.1989   -2.1507   -0.2219 H   0  0  0  0  0  0  0  0  0  0  0  0
    1.9955   -1.4145    1.5819 H   0  0  0  0  0  0  0  0  0  0  0  0
    3.2996    2.1925   -0.2492 H   0  0  0  0  0  0  0  0  0  0  0  0
    1.1058    1.4013   -1.4193 H   0  0  0  0  0  0  0  0  0  0  0  0
   -1.0414    2.7239    0.2390 H   0  0  0  0  0  0  0  0  0  0  0  0
  1  2  1  0
  2  3  1  0
  3  4  1  0
  4  5  2  0
  5  6  1  0
  6  7  2  0
  7  8  1  0
  2  9  1  0
  9 10  2  0
  9 11  1  0
  8  4  1  0
  1 12  1  0
  1 13  1  0
  2 14  1  1
  3 15  1  0
  3 16  1  0
  5 17  1  0
  7 18  1  0
  8 19  1  0
 11 20  1  0
M  END
$$$$

     RDKit          3D

 20 20  0  0  0  0  0  0  0  0999 V2000
   -1.0916    1.3326   -0.3580 N   0  0  0  0  0  0  0  0  0  0  0  0
   -1.1087   -0.0879   -0.5337 C   0  0  1  0  0  0  0  0  0  0  0  0
   -0.0994   -0.7262    0.3815 C   0  0  0  0  0  0  0  0  0  0  0  0
    1.2511   -0.2061    0.0599 C   0  0  0  0  0  0  0  0  0  0  0  0
    1.6382    0.7097   -0.8949 C   0  0  0  0  0  0  0  0  0  0  0  0
    2.9666    0.8543   -0.7984 N   0  0  0  0  0  0  0  0  0  0  0  0
    3.4457    0.0693    0.1784 C   0  0  0  0  0  0  0  0  0  0  0  0
    2.3938   -0.5814    0.7053 N   0  0  0  0  0  0  0  0  0  0  0  0
   -2.4634   -0.6384   -0.3203 C   0  0  0  0  0  0  0  0  0  0  0  0
   -2.7316   -1.8507   -0.4172 O   0  0  0  0  0  0  0  0  0  0  0  0
   -3.4920    0.2272    0.0037 O   0  0  0  0  0  0  0  0  0  0  0  0
   -1.6362    1.8518   -1.0747 H   0  0  0  0  0  0  0  0  0  0  0  0
   -1.2281    1.6516    0.6072 H   0  0  0  0  0  0  0  0  0  0  0  0
   -0.7945   -0.3180   -1.5745 H   0  0  0  0  0  0  0  0  0  0  0  0
   -0.1210   -1.8229    0.3439 H   0  0  0  0  0  0  0  0  0  0  0  0
   -0.3454   -0.4130    1.4205 H   0  0  0  0  0  0  0  0  0  0  0  0
    0.9701    1.1979   -1.5747 H   0  0  0  0  0  0  0  0  0  0  0  0
    4.4804   -0.0466    0.5109 H   0  0  0  0  0  0  0  0  0  0  0  0
    2.4271   -1.2701    1.4868 H   0  0  0  0  0  0  0  0  0  0  0  0
   -4.4609    0.0667   -0.2354 H   0  0  0  0  0  0  0  0  0  0  0  0
  1  2  1  0
  2  3  1  0
  3  4  1  0
  4  5  2  0
  5  6  1  0
  6  7  2  0
  7  8  1  0
  2  9  1  0
  9 10  2  0
  9 11  1  0
  8  4  1  0
  1 12  1  0
  1 13  1  0
  2 14  1  6
  3 15  1  0
  3 16  1  0
  5 17  1  0
  7 18  1  0
  8 19  1  0
 11 20  1  0
M  END
$$$$

     RDKit          3D

 20 20  0  0  0  0  0  0  0  0999 V2000
   -2.2706   -1.6186   -0.0089 N   0  0  0  0  0  0  0  0  0  0  0  0
   -1.3524   -0.4844    0.2714 C   0  0  1  0  0  0  0  0  0  0  0  0
   -0.0129   -0.9208   -0.2053 C   0  0  0  0  0  0  0  0  0  0  0  0
    1.0975   -0.0051   -0.0107 C   0  0  0  0  0  0  0  0  0  0  0  0
    1.1573    1.1762    0.6777 C   0  0  0  0  0  0  0  0  0  0  0  0
    2.4063    1.6818    0.5578 N   0  0  0  0  0  0  0  0  0  0  0  0
    3.1090    0.8197   -0.1965 C   0  0  0  0  0  0  0  0  0  0  0  0
    2.3216   -0.1897   -0.5350 N   0  0  0  0  0  0  0  0  0  0  0  0
   -1.8731    0.5989   -0.6412 C   0  0  0  0  0  0  0  0  0  0  0  0
   -2.9046    0.3771   -1.3624 O   0  0  0  0  0  0  0  0  0  0  0  0
   -1.3210    1.8373   -0.7697 O   0  0  0  0  0  0  0  0  0  0  0  0
   -1.8116   -2.5216    0.2489 H   0  0  0  0  0  0  0  0  0  0  0  0
   -2.5446   -1.6433   -0.9971 H   0  0  0  0  0  0  0  0  0  0  0  0
   -1.4454   -0.2135    1.3145 H   0  0  0  0  0  0  0  0  0  0  0  0
   -0.1311   -1.2603   -1.2633 H   0  0  0  0  0  0  0  0  0  0  0  0
    0.2361   -1.8754    0.3518 H   0  0  0  0  0  0  0  0  0  0  0  0
    0.4039    1.6599    1.2379 H   0  0  0  0  0  0  0  0  0  0  0  0
    4.1532    0.8935   -0.5055 H   0  0  0  0  0  0  0  0  0  0  0  0
    2.5991   -1.0072   -1.1186 H   0  0  0  0  0  0  0  0  0  0  0  0
   -1.8168    2.6955   -0.9617 H   0  0  0  0  0  0  0  0  0  0  0  0
  1  2  1  0
  2  3  1  0
  3  4  1  0
  4  5  2  0
  5  6  1  0
  6  7  2  0
  7  8  1  0
  2  9  1  0
  9 10  2  0
  9 11  1  0
  8  4  1  0
  1 12  1  0
  1 13  1  0
  2 14  1  1
  3 15  1  0
  3 16  1  0
  5 17  1  0
  7 18  1  0
  8 19  1  0
 11 20  1  0
M  END
$$$$

     RDKit          3D

 20 20  0  0  0  0  0  0  0  0999 V2000
   -2.3299   -1.1410   -0.7278 N   0  0  0  0  0  0  0  0  0  0  0  0
   -1.2344   -0.7649    0.2059 C   0  0  1  0  0  0  0  0  0  0  0  0
   -0.0836   -0.4509   -0.6743 C   0  0  0  0  0  0  0  0  0  0  0  0
    1.1742   -0.0828   -0.0374 C   0  0  0  0  0  0  0  0  0  0  0  0
    1.6297   -0.0571    1.2422 C   0  0  0  0  0  0  0  0  0  0  0  0
    2.9034    0.4061    1.2511 N   0  0  0  0  0  0  0  0  0  0  0  0
    3.2288    0.6622   -0.0112 C   0  0  0  0  0  0  0  0  0  0  0  0
    2.2115    0.3781   -0.8024 N   0  0  0  0  0  0  0  0  0  0  0  0
   -1.7322    0.4799    0.8527 C   0  0  0  0  0  0  0  0  0  0  0  0
   -1.0783    1.1244    1.7000 O   0  0  0  0  0  0  0  0  0  0  0  0
   -2.9799    0.9926    0.5329 O   0  0  0  0  0  0  0  0  0  0  0  0
   -1.9099   -1.7579   -1.4692 H   0  0  0  0  0  0  0  0  0  0  0  0
   -2.5910   -0.2535   -1.2137 H   0  0  0  0  0  0  0  0  0  0  0  0
   -1.1087   -1.6046    0.8922 H   0  0  0  0  0  0  0  0  0  0  0  0
    0.1147   -1.3510   -1.3131 H   0  0  0  0  0  0  0  0  0  0  0  0
   -0.3904    0.3999   -1.3309 H   0  0  0  0  0  0  0  0  0  0  0  0
    1.0733   -0.3679    2.1079 H   0  0  0  0  0  0  0  0  0  0  0  0
    4.1997    1.0507   -0.3298 H   0  0  0  0  0  0  0  0  0  0  0  0
    2.2382    0.5017   -1.8485 H   0  0  0  0  0  0  0  0  0  0  0  0
   -3.3351    1.8360    0.9733 H   0  0  0  0  0  0  0  0  0  0  0  0
  1  2  1  0
  2  3  1  0
  3  4  1  0
  4  5  2  0
  5  6  1  0
  6  7  2  0
  7  8  1  0
  2  9  1  0
  9 10  2  0
  9 11  1  0
  8  4  1  0
  1 12  1  0
  1 13  1  0
  2 14  1  1
  3 15  1  0
  3 16  1  0
  5 17  1  0
  7 18  1  0
  8 19  1  0
 11 20  1  0
M  END
$$$$

     RDKit          3D

 20 20  0  0  0  0  0  0  0  0999 V2000
   -2.3597   -1.2801    0.8625 N   0  0  0  0  0  0  0  0  0  0  0  0
   -1.3247   -0.2676    0.6253 C   0  0  1  0  0  0  0  0  0  0  0  0
   -0.1030   -1.0261    0.1832 C   0  0  0  0  0  0  0  0  0  0  0  0
    1.0607   -0.1769   -0.1086 C   0  0  0  0  0  0  0  0  0  0  0  0
    1.3948    0.3699   -1.3068 C   0  0  0  0  0  0  0  0  0  0  0  0
    2.5409    1.0763   -1.1046 N   0  0  0  0  0  0  0  0  0  0  0  0
    2.9198    0.9797    0.1793 C   0  0  0  0  0  0  0  0  0  0  0  0
    1.9969    0.2047    0.7768 N   0  0  0  0  0  0  0  0  0  0  0  0
   -1.7596    0.6337   -0.4558 C   0  0  0  0  0  0  0  0  0  0  0  0
   -2.8480    0.4307   -1.0266 O   0  0  0  0  0  0  0  0  0  0  0  0
   -0.9698    1.7130   -0.8499 O   0  0  0  0  0  0  0  0  0  0  0  0
   -2.0849   -1.9331    1.6066 H   0  0  0  0  0  0  0  0  0  0  0  0
   -2.4110   -1.8233   -0.0459 H   0  0  0  0  0  0  0  0  0  0  0  0
   -1.1415    0.3285    1.5446 H   0  0  0  0  0  0  0  0  0  0  0  0
   -0.3956   -1.6405   -0.6904 H   0  0  0  0  0  0  0  0  0  0  0  0
    0.1903   -1.7589    0.9801 H   0  0  0  0  0  0  0  0  0  0  0  0
    0.9012    0.3002   -2.2655 H   0  0  0  0  0  0  0  0  0  0  0  0
    3.7926    1.4355    0.6361 H   0  0  0  0  0  0  0  0  0  0  0  0
    2.0083   -0.0577    1.7724 H   0  0  0  0  0  0  0  0  0  0  0  0
   -1.4076    2.4921   -1.3130 H   0  0  0  0  0  0  0  0  0  0  0  0
  1  2  1  0
  2  3  1  0
  3  4  1  0
  4  5  2  0
  5  6  1  0
  6  7  2  0
  7  8  1  0
  2  9  1  0
  9 10  2  0
  9 11  1  0
  8  4  1  0
  1 12  1  0
  1 13  1  0
  2 14  1  1
  3 15  1  0
  3 16  1  0
  5 17  1  0
  7 18  1  0
  8 19  1  0
 11 20  1  0
M  END
$$$$

     RDKit          3D

 20 20  0  0  0  0  0  0  0  0999 V2000
   -2.3672   -1.3993   -0.1140 N   0  0  0  0  0  0  0  0  0  0  0  0
   -1.3839   -0.3947    0.3918 C   0  0  1  0  0  0  0  0  0  0  0  0
   -0.0670   -0.9423    0.1200 C   0  0  0  0  0  0  0  0  0  0  0  0
    1.1526   -0.2786    0.4872 C   0  0  0  0  0  0  0  0  0  0  0  0
    2.3901   -0.8319    0.1078 C   0  0  0  0  0  0  0  0  0  0  0  0
    3.3462   -0.0476    0.5778 N   0  0  0  0  0  0  0  0  0  0  0  0
    2.8260    0.9743    1.2346 C   0  0  0  0  0  0  0  0  0  0  0  0
    1.4862    0.8097    1.1647 N   0  0  0  0  0  0  0  0  0  0  0  0
   -1.7770    0.8489   -0.2411 C   0  0  0  0  0  0  0  0  0  0  0  0
   -2.7741    0.8857   -1.0344 O   0  0  0  0  0  0  0  0  0  0  0  0
   -1.1539    2.0769   -0.0712 O   0  0  0  0  0  0  0  0  0  0  0  0
   -3.3027   -0.9248   -0.2113 H   0  0  0  0  0  0  0  0  0  0  0  0
   -2.0885   -1.6656   -1.0894 H   0  0  0  0  0  0  0  0  0  0  0  0
   -1.6094   -0.3385    1.4767 H   0  0  0  0  0  0  0  0  0  0  0  0
   -0.0049   -1.1906   -0.9869 H   0  0  0  0  0  0  0  0  0  0  0  0
   -0.0300   -1.9791    0.5829 H   0  0  0  0  0  0  0  0  0  0  0  0
    2.5886   -1.7271   -0.4611 H   0  0  0  0  0  0  0  0  0  0  0  0
    3.3706    1.7522    1.7108 H   0  0  0  0  0  0  0  0  0  0  0  0
    0.8347    1.4593    1.6002 H   0  0  0  0  0  0  0  0  0  0  0  0
   -1.4364    2.9132   -0.5409 H   0  0  0  0  0  0  0  0  0  0  0  0
  1  2  1  0
  2  3  1  0
  3  4  1  0
  4  5  2  0
  5  6  1  0
  6  7  2  0
  7  8  1  0
  2  9  1  0
  9 10  2  0
  9 11  1  0
  8  4  1  0
  1 12  1  0
  1 13  1  0
  2 14  1  1
  3 15  1  0
  3 16  1  0
  5 17  1  0
  7 18  1  0
  8 19  1  0
 11 20  1  0
M  END
$$$$

     RDKit          3D

 20 20  0  0  0  0  0  0  0  0999 V2000
   -2.3335   -1.2202    0.5276 N   0  0  0  0  0  0  0  0  0  0  0  0
   -1.2119   -0.3006    0.5659 C   0  0  1  0  0  0  0  0  0  0  0  0
   -0.0637   -0.9914   -0.1371 C   0  0  0  0  0  0  0  0  0  0  0  0
    1.1631   -0.1941   -0.1899 C   0  0  0  0  0  0  0  0  0  0  0  0
    1.4932    0.6821   -1.2008 C   0  0  0  0  0  0  0  0  0  0  0  0
    2.6861    1.2118   -0.8823 N   0  0  0  0  0  0  0  0  0  0  0  0
    3.1114    0.7043    0.2804 C   0  0  0  0  0  0  0  0  0  0  0  0
    2.1624   -0.1617    0.6966 N   0  0  0  0  0  0  0  0  0  0  0  0
   -1.5838    0.9726   -0.0706 C   0  0  0  0  0  0  0  0  0  0  0  0
   -0.7435    1.8971   -0.1319 O   0  0  0  0  0  0  0  0  0  0  0  0
   -2.8537    1.1237   -0.5886 O   0  0  0  0  0  0  0  0  0  0  0  0
   -2.1224   -2.1012    1.0446 H   0  0  0  0  0  0  0  0  0  0  0  0
   -2.5036   -1.4726   -0.4767 H   0  0  0  0  0  0  0  0  0  0  0  0
   -0.9568   -0.1149    1.6297 H   0  0  0  0  0  0  0  0  0  0  0  0
    0.1479   -1.9180    0.4668 H   0  0  0  0  0  0  0  0  0  0  0  0
   -0.3832   -1.3353   -1.1235 H   0  0  0  0  0  0  0  0  0  0  0  0
    0.9620    0.9470   -2.0971 H   0  0  0  0  0  0  0  0  0  0  0  0
    4.0415    0.9224    0.8224 H   0  0  0  0  0  0  0  0  0  0  0  0
    2.2486   -0.7028    1.5924 H   0  0  0  0  0  0  0  0  0  0  0  0
   -3.2601    2.0519   -0.7279 H   0  0  0  0  0  0  0  0  0  0  0  0
  1  2  1  0
  2  3  1  0
  3  4  1  0
  4  5  2  0
  5  6  1  0
  6  7  2  0
  7  8  1  0
  2  9  1  0
  9 10  2  0
  9 11  1  0
  8  4  1  0
  1 12  1  0
  1 13  1  0
  2 14  1  1
  3 15  1  0
  3 16  1  0
  5 17  1  0
  7 18  1  0
  8 19  1  0
 11 20  1  0
M  END
$$$$

     RDKit          3D

 20 20  0  0  0  0  0  0  0  0999 V2000
   -2.3710   -1.0835    0.7608 N   0  0  0  0  0  0  0  0  0  0  0  0
   -1.2695   -0.1664    0.5369 C   0  0  1  0  0  0  0  0  0  0  0  0
   -0.0146   -0.9789    0.4215 C   0  0  0  0  0  0  0  0  0  0  0  0
    1.1939   -0.1632    0.1902 C   0  0  0  0  0  0  0  0  0  0  0  0
    1.6831    0.1892   -1.0553 C   0  0  0  0  0  0  0  0  0  0  0  0
    2.8042    0.9378   -0.8486 N   0  0  0  0  0  0  0  0  0  0  0  0
    3.0228    1.0594    0.4554 C   0  0  0  0  0  0  0  0  0  0  0  0
    2.0387    0.3869    1.0701 N   0  0  0  0  0  0  0  0  0  0  0  0
   -1.5384    0.7097   -0.5942 C   0  0  0  0  0  0  0  0  0  0  0  0
   -0.7508    1.5917   -0.9984 O   0  0  0  0  0  0  0  0  0  0  0  0
   -2.7373    0.5763   -1.2822 O   0  0  0  0  0  0  0  0  0  0  0  0
   -2.0226   -1.8153    1.4329 H   0  0  0  0  0  0  0  0  0  0  0  0
   -2.6157   -1.6087   -0.1180 H   0  0  0  0  0  0  0  0  0  0  0  0
   -1.1933    0.4724    1.4560 H   0  0  0  0  0  0  0  0  0  0  0  0
    0.0525   -1.5893    1.3630 H   0  0  0  0  0  0  0  0  0  0  0  0
   -0.1815   -1.7307   -0.3919 H   0  0  0  0  0  0  0  0  0  0  0  0
    1.2935   -0.0536   -2.0237 H   0  0  0  0  0  0  0  0  0  0  0  0
    3.8461    1.6034    0.9007 H   0  0  0  0  0  0  0  0  0  0  0  0
    1.9262    0.2915    2.1017 H   0  0  0  0  0  0  0  0  0  0  0  0
   -3.1664    1.3711   -1.7784 H   0  0  0  0  0  0  0  0  0  0  0  0
  1  2  1  0
  2  3  1  0
  3  4  1  0
  4  5  2  0
  5  6  1  0
  6  7  2  0
  7  8  1  0
  2  9  1  0
  9 10  2  0
  9 11  1  0
  8  4  1  0
  1 12  1  0
  1 13  1  0
  2 14  1  1
  3 15  1  0
  3 16  1  0
  5 17  1  0
  7 18  1  0
  8 19  1  0
 11 20  1  0
M  END
$$$$

     RDKit          3D

 20 20  0  0  0  0  0  0  0  0999 V2000
   -2.1989   -1.7362   -0.1262 N   0  0  0  0  0  0  0  0  0  0  0  0
   -1.2798   -0.7238    0.3601 C   0  0  1  0  0  0  0  0  0  0  0  0
    0.0832   -1.0609   -0.1780 C   0  0  0  0  0  0  0  0  0  0  0  0
    1.1350   -0.1331    0.2204 C   0  0  0  0  0  0  0  0  0  0  0  0
    1.9173   -0.2461    1.3480 C   0  0  0  0  0  0  0  0  0  0  0  0
    2.7668    0.7978    1.3650 N   0  0  0  0  0  0  0  0  0  0  0  0
    2.5476    1.5625    0.2903 C   0  0  0  0  0  0  0  0  0  0  0  0
    1.5370    0.9746   -0.4067 N   0  0  0  0  0  0  0  0  0  0  0  0
   -1.7486    0.6144    0.0344 C   0  0  0  0  0  0  0  0  0  0  0  0
   -2.8260    0.7516   -0.5912 O   0  0  0  0  0  0  0  0  0  0  0  0
   -1.0656    1.7649    0.3792 O   0  0  0  0  0  0  0  0  0  0  0  0
   -2.7768   -1.3581   -0.9222 H   0  0  0  0  0  0  0  0  0  0  0  0
   -1.7046   -2.6169   -0.4143 H   0  0  0  0  0  0  0  0  0  0  0  0
   -1.2690   -0.8325    1.4744 H   0  0  0  0  0  0  0  0  0  0  0  0
    0.2940   -2.1125    0.1468 H   0  0  0  0  0  0  0  0  0  0  0  0
   -0.0146   -1.1160   -1.2946 H   0  0  0  0  0  0  0  0  0  0  0  0
    1.9143   -0.9998    2.1241 H   0  0  0  0  0  0  0  0  0  0  0  0
    3.0852    2.4616    0.0543 H   0  0  0  0  0  0  0  0  0  0  0  0
    1.1853    1.3960   -1.2971 H   0  0  0  0  0  0  0  0  0  0  0  0
   -1.5817    2.6125    0.6589 H   0  0  0  0  0  0  0  0  0  0  0  0
  1  2  1  0
  2  3  1  0
  3  4  1  0
  4  5  2  0
  5  6  1  0
  6  7  2  0
  7  8  1  0
  2  9  1  0
  9 10  2  0
  9 11  1  0
  8  4  1  0
  1 12  1  0
  1 13  1  0
  2 14  1  1
  3 15  1  0
  3 16  1  0
  5 17  1  0
  7 18  1  0
  8 19  1  0
 11 20  1  0
M  END
$$$$

     RDKit          3D

 20 20  0  0  0  0  0  0  0  0999 V2000
   -1.2508    1.4335    0.5204 N   0  0  0  0  0  0  0  0  0  0  0  0
   -1.1852    0.5944   -0.6387 C   0  0  1  0  0  0  0  0  0  0  0  0
    0.2030    0.4618   -1.2009 C   0  0  0  0  0  0  0  0  0  0  0  0
    1.1664   -0.1131   -0.2535 C   0  0  0  0  0  0  0  0  0  0  0  0
    1.4846   -1.4503   -0.0641 C   0  0  0  0  0  0  0  0  0  0  0  0
    2.4194   -1.5385    0.9058 N   0  0  0  0  0  0  0  0  0  0  0  0
    2.6957   -0.2920    1.3296 C   0  0  0  0  0  0  0  0  0  0  0  0
    1.9369    0.5499    0.6252 N   0  0  0  0  0  0  0  0  0  0  0  0
   -1.8513   -0.6982   -0.4195 C   0  0  0  0  0  0  0  0  0  0  0  0
   -1.9250   -1.5960   -1.2835 O   0  0  0  0  0  0  0  0  0  0  0  0
   -2.4278   -0.9318    0.8123 O   0  0  0  0  0  0  0  0  0  0  0  0
   -1.9002    1.0487    1.2442 H   0  0  0  0  0  0  0  0  0  0  0  0
   -1.4393    2.4351    0.2956 H   0  0  0  0  0  0  0  0  0  0  0  0
   -1.7875    1.1204   -1.4387 H   0  0  0  0  0  0  0  0  0  0  0  0
    0.4973    1.4744   -1.5654 H   0  0  0  0  0  0  0  0  0  0  0  0
    0.1140   -0.1638   -2.1290 H   0  0  0  0  0  0  0  0  0  0  0  0
    1.0858   -2.3154   -0.5750 H   0  0  0  0  0  0  0  0  0  0  0  0
    3.4250   -0.0680    2.1179 H   0  0  0  0  0  0  0  0  0  0  0  0
    1.9611    1.5995    0.7636 H   0  0  0  0  0  0  0  0  0  0  0  0
   -3.2222   -1.5503    0.9539 H   0  0  0  0  0  0  0  0  0  0  0  0
  1  2  1  0
  2  3  1  0
  3  4  1  0
  4  5  2  0
  5  6  1  0
  6  7  2  0
  7  8  1  0
  2  9  1  0
  9 10  2  0
  9 11  1  0
  8  4  1  0
  1 12  1  0
  1 13  1  0
  2 14  1  6
  3 15  1  0
  3 16  1  0
  5 17  1  0
  7 18  1  0
  8 19  1  0
 11 20  1  0
M  END
$$$$

     RDKit          3D

 20 20  0  0  0  0  0  0  0  0999 V2000
   -2.4126    1.1791   -0.4241 N   0  0  0  0  0  0  0  0  0  0  0  0
   -1.1900    0.4427   -0.6351 C   0  0  1  0  0  0  0  0  0  0  0  0
   -0.1656    0.9791    0.3267 C   0  0  0  0  0  0  0  0  0  0  0  0
    1.1406    0.3181    0.2262 C   0  0  0  0  0  0  0  0  0  0  0  0
    2.1790    0.7304   -0.6149 C   0  0  0  0  0  0  0  0  0  0  0  0
    3.2220   -0.0952   -0.4514 N   0  0  0  0  0  0  0  0  0  0  0  0
    2.8782   -1.0122    0.4621 C   0  0  0  0  0  0  0  0  0  0  0  0
    1.6138   -0.7540    0.8679 N   0  0  0  0  0  0  0  0  0  0  0  0
   -1.3685   -1.0104   -0.5025 C   0  0  0  0  0  0  0  0  0  0  0  0
   -0.4085   -1.7792   -0.6637 O   0  0  0  0  0  0  0  0  0  0  0  0
   -2.6073   -1.5563   -0.1957 O   0  0  0  0  0  0  0  0  0  0  0  0
   -3.1620    0.9716   -1.0837 H   0  0  0  0  0  0  0  0  0  0  0  0
   -2.2768    2.1542   -0.1539 H   0  0  0  0  0  0  0  0  0  0  0  0
   -0.8485    0.6589   -1.6703 H   0  0  0  0  0  0  0  0  0  0  0  0
   -0.5653    0.8025    1.3561 H   0  0  0  0  0  0  0  0  0  0  0  0
   -0.0527    2.0698    0.2294 H   0  0  0  0  0  0  0  0  0  0  0  0
    2.1557    1.5702   -1.2868 H   0  0  0  0  0  0  0  0  0  0  0  0
    3.5038   -1.8318    0.8241 H   0  0  0  0  0  0  0  0  0  0  0  0
    1.1067   -1.3259    1.5810 H   0  0  0  0  0  0  0  0  0  0  0  0
   -2.7418   -2.5118    0.0545 H   0  0  0  0  0  0  0  0  0  0  0  0
  1  2  1  0
  2  3  1  0
  3  4  1  0
  4  5  2  0
  5  6  1  0
  6  7  2  0
  7  8  1  0
  2  9  1  0
  9 10  2  0
  9 11  1  0
  8  4  1  0
  1 12  1  0
  1 13  1  0
  2 14  1  6
  3 15  1  0
  3 16  1  0
  5 17  1  0
  7 18  1  0
  8 19  1  0
 11 20  1  0
M  END
$$$$

     RDKit          3D

 20 20  0  0  0  0  0  0  0  0999 V2000
   -1.0986   -1.4554   -0.3510 N   0  0  0  0  0  0  0  0  0  0  0  0
   -1.0556   -0.2929    0.4550 C   0  0  1  0  0  0  0  0  0  0  0  0
   -0.2318    0.8289   -0.1398 C   0  0  0  0  0  0  0  0  0  0  0  0
    1.1760    0.4097   -0.3444 C   0  0  0  0  0  0  0  0  0  0  0  0
    2.1799    1.1691   -0.8580 C   0  0  0  0  0  0  0  0  0  0  0  0
    3.3304    0.4590   -0.8975 N   0  0  0  0  0  0  0  0  0  0  0  0
    3.0222   -0.7550   -0.3990 C   0  0  0  0  0  0  0  0  0  0  0  0
    1.7164   -0.7896   -0.0621 N   0  0  0  0  0  0  0  0  0  0  0  0
   -2.4388    0.2037    0.6801 C   0  0  0  0  0  0  0  0  0  0  0  0
   -3.4594   -0.3523    0.2093 O   0  0  0  0  0  0  0  0  0  0  0  0
   -2.6679    1.3560    1.4561 O   0  0  0  0  0  0  0  0  0  0  0  0
   -0.5559   -1.4368   -1.2197 H   0  0  0  0  0  0  0  0  0  0  0  0
   -1.9572   -2.0009   -0.3475 H   0  0  0  0  0  0  0  0  0  0  0  0
   -0.6297   -0.5750    1.4406 H   0  0  0  0  0  0  0  0  0  0  0  0
   -0.2868    1.7050    0.5277 H   0  0  0  0  0  0  0  0  0  0  0  0
   -0.6601    1.1449   -1.1117 H   0  0  0  0  0  0  0  0  0  0  0  0
    2.0732    2.1911   -1.1866 H   0  0  0  0  0  0  0  0  0  0  0  0
    3.7432   -1.5720   -0.2945 H   0  0  0  0  0  0  0  0  0  0  0  0
    1.2586   -1.6289    0.3434 H   0  0  0  0  0  0  0  0  0  0  0  0
   -3.4581    1.3911    2.0998 H   0  0  0  0  0  0  0  0  0  0  0  0
  1  2  1  0
  2  3  1  0
  3  4  1  0
  4  5  2  0
  5  6  1  0
  6  7  2  0
  7  8  1  0
  2  9  1  0
  9 10  2  0
  9 11  1  0
  8  4  1  0
  1 12  1  0
  1 13  1  0
  2 14  1  1
  3 15  1  0
  3 16  1  0
  5 17  1  0
  7 18  1  0
  8 19  1  0
 11 20  1  0
M  END
$$$$

     RDKit          3D

 20 20  0  0  0  0  0  0  0  0999 V2000
    2.0056    2.0032    0.0473 N   0  0  0  0  0  0  0  0  0  0  0  0
    1.1189    0.9204    0.4274 C   0  0  1  0  0  0  0  0  0  0  0  0
   -0.0855    0.8876   -0.4816 C   0  0  0  0  0  0  0  0  0  0  0  0
   -1.0405   -0.1977   -0.1544 C   0  0  0  0  0  0  0  0  0  0  0  0
   -1.0604   -1.4823   -0.6563 C   0  0  0  0  0  0  0  0  0  0  0  0
   -2.0912   -2.1699   -0.1050 N   0  0  0  0  0  0  0  0  0  0  0  0
   -2.7200   -1.3285    0.7394 C   0  0  0  0  0  0  0  0  0  0  0  0
   -2.0872   -0.1485    0.7066 N   0  0  0  0  0  0  0  0  0  0  0  0
    1.9002   -0.3360    0.3732 C   0  0  0  0  0  0  0  0  0  0  0  0
    3.1041   -0.3452    0.0146 O   0  0  0  0  0  0  0  0  0  0  0  0
    1.3326   -1.5432    0.7158 O   0  0  0  0  0  0  0  0  0  0  0  0
    2.3300    2.5745    0.8355 H   0  0  0  0  0  0  0  0  0  0  0  0
    1.6135    2.5659   -0.7316 H   0  0  0  0  0  0  0  0  0  0  0  0
    0.8111    1.0999    1.4934 H   0  0  0  0  0  0  0  0  0  0  0  0
    0.2506    0.8547   -1.5290 H   0  0  0  0  0  0  0  0  0  0  0  0
   -0.5901    1.8878   -0.3612 H   0  0  0  0  0  0  0  0  0  0  0  0
   -0.3975   -1.9306   -1.3719 H   0  0  0  0  0  0  0  0  0  0  0  0
   -3.5919   -1.5824    1.3378 H   0  0  0  0  0  0  0  0  0  0  0  0
   -2.3557    0.6756    1.2545 H   0  0  0  0  0  0  0  0  0  0  0  0
    1.5533   -2.4053    0.2271 H   0  0  0  0  0  0  0  0  0  0  0  0
  1  2  1  0
  2  3  1  0
  3  4  1  0
  4  5  2  0
  5  6  1  0
  6  7  2  0
  7  8  1  0
  2  9  1  0
  9 10  2  0
  9 11  1  0
  8  4  1  0
  1 12  1  0
  1 13  1  0
  2 14  1  1
  3 15  1  0
  3 16  1  0
  5 17  1  0
  7 18  1  0
  8 19  1  0
 11 20  1  0
M  END
$$$$

     RDKit          3D

 20 20  0  0  0  0  0  0  0  0999 V2000
   -2.3372   -1.3986    0.6518 N   0  0  0  0  0  0  0  0  0  0  0  0
   -1.2700   -0.4352    0.4725 C   0  0  1  0  0  0  0  0  0  0  0  0
   -0.0184   -1.1218    0.0320 C   0  0  0  0  0  0  0  0  0  0  0  0
    1.0949   -0.1605   -0.1617 C   0  0  0  0  0  0  0  0  0  0  0  0
    1.4672    0.5105   -1.2992 C   0  0  0  0  0  0  0  0  0  0  0  0
    2.5217    1.2715   -1.0093 N   0  0  0  0  0  0  0  0  0  0  0  0
    2.8211    1.0928    0.2895 C   0  0  0  0  0  0  0  0  0  0  0  0
    1.9553    0.2198    0.8161 N   0  0  0  0  0  0  0  0  0  0  0  0
   -1.7520    0.5881   -0.4735 C   0  0  0  0  0  0  0  0  0  0  0  0
   -2.8793    0.4866   -1.0089 O   0  0  0  0  0  0  0  0  0  0  0  0
   -0.9653    1.6746   -0.7815 O   0  0  0  0  0  0  0  0  0  0  0  0
   -2.7932   -1.3580    1.5624 H   0  0  0  0  0  0  0  0  0  0  0  0
   -2.1366   -2.3253    0.2689 H   0  0  0  0  0  0  0  0  0  0  0  0
   -1.0763    0.0450    1.4626 H   0  0  0  0  0  0  0  0  0  0  0  0
   -0.1551   -1.7265   -0.8900 H   0  0  0  0  0  0  0  0  0  0  0  0
    0.2904   -1.8362    0.8190 H   0  0  0  0  0  0  0  0  0  0  0  0
    0.9567    0.4043   -2.2564 H   0  0  0  0  0  0  0  0  0  0  0  0
    3.6527    1.5997    0.8049 H   0  0  0  0  0  0  0  0  0  0  0  0
    1.9638   -0.0977    1.8152 H   0  0  0  0  0  0  0  0  0  0  0  0
   -1.3404    2.5670   -1.1145 H   0  0  0  0  0  0  0  0  0  0  0  0
  1  2  1  0
  2  3  1  0
  3  4  1  0
  4  5  2  0
  5  6  1  0
  6  7  2  0
  7  8  1  0
  2  9  1  0
  9 10  2  0
  9 11  1  0
  8  4  1  0
  1 12  1  0
  1 13  1  0
  2 14  1  1
  3 15  1  0
  3 16  1  0
  5 17  1  0
  7 18  1  0
  8 19  1  0
 11 20  1  0
M  END
$$$$

     RDKit          3D

 20 20  0  0  0  0  0  0  0  0999 V2000
    0.9456   -1.6479   -0.2513 N   0  0  0  0  0  0  0  0  0  0  0  0
    1.0727   -0.2530   -0.5049 C   0  0  1  0  0  0  0  0  0  0  0  0
    0.2772    0.6015    0.4626 C   0  0  0  0  0  0  0  0  0  0  0  0
   -1.1772    0.3017    0.4087 C   0  0  0  0  0  0  0  0  0  0  0  0
   -1.8388   -0.6448    1.1790 C   0  0  0  0  0  0  0  0  0  0  0  0
   -3.1403   -0.6207    0.8440 N   0  0  0  0  0  0  0  0  0  0  0  0
   -3.3257    0.3126   -0.1160 C   0  0  0  0  0  0  0  0  0  0  0  0
   -2.1148    0.8541   -0.3576 N   0  0  0  0  0  0  0  0  0  0  0  0
    2.4949    0.1336   -0.3806 C   0  0  0  0  0  0  0  0  0  0  0  0
    3.3420   -0.7437   -0.0910 O   0  0  0  0  0  0  0  0  0  0  0  0
    2.9196    1.4534   -0.5779 O   0  0  0  0  0  0  0  0  0  0  0  0
    1.0221   -2.2579   -1.0723 H   0  0  0  0  0  0  0  0  0  0  0  0
    1.3666   -1.9849    0.6157 H   0  0  0  0  0  0  0  0  0  0  0  0
    0.7398   -0.0310   -1.5368 H   0  0  0  0  0  0  0  0  0  0  0  0
    0.6454    0.3935    1.4987 H   0  0  0  0  0  0  0  0  0  0  0  0
    0.4929    1.6719    0.2718 H   0  0  0  0  0  0  0  0  0  0  0  0
   -1.4143   -1.3143    1.9373 H   0  0  0  0  0  0  0  0  0  0  0  0
   -4.2802    0.5472   -0.5744 H   0  0  0  0  0  0  0  0  0  0  0  0
   -1.9325    1.6123   -1.0578 H   0  0  0  0  0  0  0  0  0  0  0  0
    3.9051    1.6167   -0.6972 H   0  0  0  0  0  0  0  0  0  0  0  0
  1  2  1  0
  2  3  1  0
  3  4  1  0
  4  5  2  0
  5  6  1  0
  6  7  2  0
  7  8  1  0
  2  9  1  0
  9 10  2  0
  9 11  1  0
  8  4  1  0
  1 12  1  0
  1 13  1  0
  2 14  1  6
  3 15  1  0
  3 16  1  0
  5 17  1  0
  7 18  1  0
  8 19  1  0
 11 20  1  0
M  END
$$$$

     RDKit          3D

 20 20  0  0  0  0  0  0  0  0999 V2000
   -0.8834    0.7990   -1.3260 N   0  0  0  0  0  0  0  0  0  0  0  0
   -1.1315   -0.2638   -0.3762 C   0  0  1  0  0  0  0  0  0  0  0  0
   -0.1630   -0.2535    0.7733 C   0  0  0  0  0  0  0  0  0  0  0  0
    1.2360   -0.4101    0.3819 C   0  0  0  0  0  0  0  0  0  0  0  0
    1.9544   -1.5813    0.2443 C   0  0  0  0  0  0  0  0  0  0  0  0
    3.2023   -1.2256   -0.1337 N   0  0  0  0  0  0  0  0  0  0  0  0
    3.2991    0.1069   -0.2390 C   0  0  0  0  0  0  0  0  0  0  0  0
    2.0765    0.6089    0.0819 N   0  0  0  0  0  0  0  0  0  0  0  0
   -2.4944   -0.0373    0.1996 C   0  0  0  0  0  0  0  0  0  0  0  0
   -2.9408   -0.8454    1.0635 O   0  0  0  0  0  0  0  0  0  0  0  0
   -3.2981    1.0248   -0.1715 O   0  0  0  0  0  0  0  0  0  0  0  0
   -1.6460    0.7274   -2.0494 H   0  0  0  0  0  0  0  0  0  0  0  0
   -0.9476    1.7420   -0.9144 H   0  0  0  0  0  0  0  0  0  0  0  0
   -1.1052   -1.2257   -0.8967 H   0  0  0  0  0  0  0  0  0  0  0  0
   -0.4590   -1.0792    1.4550 H   0  0  0  0  0  0  0  0  0  0  0  0
   -0.3604    0.6879    1.3493 H   0  0  0  0  0  0  0  0  0  0  0  0
    1.5575   -2.5831    0.4163 H   0  0  0  0  0  0  0  0  0  0  0  0
    4.1834    0.6873   -0.5260 H   0  0  0  0  0  0  0  0  0  0  0  0
    1.8123    1.6174    0.0988 H   0  0  0  0  0  0  0  0  0  0  0  0
   -3.8921    1.5035    0.5216 H   0  0  0  0  0  0  0  0  0  0  0  0
  1  2  1  0
  2  3  1  0
  3  4  1  0
  4  5  2  0
  5  6  1  0
  6  7  2  0
  7  8  1  0
  2  9  1  0
  9 10  2  0
  9 11  1  0
  8  4  1  0
  1 12  1  0
  1 13  1  0
  2 14  1  6
  3 15  1  0
  3 16  1  0
  5 17  1  0
  7 18  1  0
  8 19  1  0
 11 20  1  0
M  END
$$$$

     RDKit          3D

 20 20  0  0  0  0  0  0  0  0999 V2000
   -0.7808   -1.7344   -0.0262 N   0  0  0  0  0  0  0  0  0  0  0  0
   -1.1380   -0.3984    0.3252 C   0  0  1  0  0  0  0  0  0  0  0  0
   -0.2843    0.6373   -0.4060 C   0  0  0  0  0  0  0  0  0  0  0  0
    1.1491    0.4887   -0.1017 C   0  0  0  0  0  0  0  0  0  0  0  0
    1.8188    1.1059    0.9239 C   0  0  0  0  0  0  0  0  0  0  0  0
    3.1161    0.7233    0.8801 N   0  0  0  0  0  0  0  0  0  0  0  0
    3.2680   -0.1213   -0.1540 C   0  0  0  0  0  0  0  0  0  0  0  0
    2.0521   -0.2535   -0.7443 N   0  0  0  0  0  0  0  0  0  0  0  0
   -2.5450   -0.0750    0.0990 C   0  0  0  0  0  0  0  0  0  0  0  0
   -3.3247   -0.9402   -0.3668 O   0  0  0  0  0  0  0  0  0  0  0  0
   -3.0654    1.1768    0.3845 O   0  0  0  0  0  0  0  0  0  0  0  0
   -1.5844   -2.3972   -0.0477 H   0  0  0  0  0  0  0  0  0  0  0  0
   -0.2013   -1.7497   -0.8705 H   0  0  0  0  0  0  0  0  0  0  0  0
   -0.8692   -0.2667    1.4144 H   0  0  0  0  0  0  0  0  0  0  0  0
   -0.4810    0.4845   -1.4898 H   0  0  0  0  0  0  0  0  0  0  0  0
   -0.5939    1.6598   -0.1226 H   0  0  0  0  0  0  0  0  0  0  0  0
    1.3576    1.7908    1.6456 H   0  0  0  0  0  0  0  0  0  0  0  0
    4.2033   -0.5963   -0.4418 H   0  0  0  0  0  0  0  0  0  0  0  0
    1.9146   -0.8635   -1.5768 H   0  0  0  0  0  0  0  0  0  0  0  0
   -4.0116    1.3291    0.6755 H   0  0  0  0  0  0  0  0  0  0  0  0
  1  2  1  0
  2  3  1  0
  3  4  1  0
  4  5  2  0
  5  6  1  0
  6  7  2  0
  7  8  1  0
  2  9  1  0
  9 10  2  0
  9 11  1  0
  8  4  1  0
  1 12  1  0
  1 13  1  0
  2 14  1  1
  3 15  1  0
  3 16  1  0
  5 17  1  0
  7 18  1  0
  8 19  1  0
 11 20  1  0
M  END
$$$$

     RDKit          3D

 20 20  0  0  0  0  0  0  0  0999 V2000
   -2.1227   -1.5640    0.6994 N   0  0  0  0  0  0  0  0  0  0  0  0
   -1.0603   -0.5691    0.8065 C   0  0  1  0  0  0  0  0  0  0  0  0
    0.0225   -0.9840   -0.1566 C   0  0  0  0  0  0  0  0  0  0  0  0
    1.1779   -0.0633   -0.1611 C   0  0  0  0  0  0  0  0  0  0  0  0
    1.3718    1.0520   -0.9450 C   0  0  0  0  0  0  0  0  0  0  0  0
    2.5736    1.6152   -0.6282 N   0  0  0  0  0  0  0  0  0  0  0  0
    3.0989    0.8492    0.3353 C   0  0  0  0  0  0  0  0  0  0  0  0
    2.2665   -0.1559    0.6171 N   0  0  0  0  0  0  0  0  0  0  0  0
   -1.6359    0.7542    0.4826 C   0  0  0  0  0  0  0  0  0  0  0  0
   -0.8762    1.7491    0.5190 O   0  0  0  0  0  0  0  0  0  0  0  0
   -2.9561    0.9784    0.1405 O   0  0  0  0  0  0  0  0  0  0  0  0
   -1.9333   -2.2756   -0.0304 H   0  0  0  0  0  0  0  0  0  0  0  0
   -3.0615   -1.1161    0.5937 H   0  0  0  0  0  0  0  0  0  0  0  0
   -0.6977   -0.6098    1.8521 H   0  0  0  0  0  0  0  0  0  0  0  0
   -0.4204   -1.0920   -1.1638 H   0  0  0  0  0  0  0  0  0  0  0  0
    0.3435   -2.0070    0.1478 H   0  0  0  0  0  0  0  0  0  0  0  0
    0.7315    1.4630   -1.6934 H   0  0  0  0  0  0  0  0  0  0  0  0
    4.0613    0.9960    0.8371 H   0  0  0  0  0  0  0  0  0  0  0  0
    2.4515   -0.9046    1.3468 H   0  0  0  0  0  0  0  0  0  0  0  0
   -3.3349    1.8844   -0.1169 H   0  0  0  0  0  0  0  0  0  0  0  0
  1  2  1  0
  2  3  1  0
  3  4  1  0
  4  5  2  0
  5  6  1  0
  6  7  2  0
  7  8  1  0
  2  9  1  0
  9 10  2  0
  9 11  1  0
  8  4  1  0
  1 12  1  0
  1 13  1  0
  2 14  1  1
  3 15  1  0
  3 16  1  0
  5 17  1  0
  7 18  1  0
  8 19  1  0
 11 20  1  0
M  END
$$$$

     RDKit          3D

 20 20  0  0  0  0  0  0  0  0999 V2000
   -1.3207   -1.6096   -0.6039 N   0  0  0  0  0  0  0  0  0  0  0  0
   -1.4289   -0.4699    0.2755 C   0  0  1  0  0  0  0  0  0  0  0  0
   -0.2254   -0.3124    1.1660 C   0  0  0  0  0  0  0  0  0  0  0  0
    1.0286   -0.1263    0.4046 C   0  0  0  0  0  0  0  0  0  0  0  0
    1.8692   -1.1303   -0.0258 C   0  0  0  0  0  0  0  0  0  0  0  0
    2.9043   -0.5559   -0.6841 N   0  0  0  0  0  0  0  0  0  0  0  0
    2.7351    0.7640   -0.6767 C   0  0  0  0  0  0  0  0  0  0  0  0
    1.5858    1.0158   -0.0088 N   0  0  0  0  0  0  0  0  0  0  0  0
   -1.7412    0.7448   -0.4925 C   0  0  0  0  0  0  0  0  0  0  0  0
   -1.8756    0.6976   -1.7336 O   0  0  0  0  0  0  0  0  0  0  0  0
   -1.8954    1.9682    0.1253 O   0  0  0  0  0  0  0  0  0  0  0  0
   -1.0310   -1.3839   -1.5631 H   0  0  0  0  0  0  0  0  0  0  0  0
   -2.0588   -2.3072   -0.4964 H   0  0  0  0  0  0  0  0  0  0  0  0
   -2.2983   -0.6672    0.9457 H   0  0  0  0  0  0  0  0  0  0  0  0
   -0.4324    0.5334    1.8568 H   0  0  0  0  0  0  0  0  0  0  0  0
   -0.1926   -1.2217    1.8180 H   0  0  0  0  0  0  0  0  0  0  0  0
    1.7880   -2.2011    0.0985 H   0  0  0  0  0  0  0  0  0  0  0  0
    3.4168    1.4651   -1.1332 H   0  0  0  0  0  0  0  0  0  0  0  0
    1.1916    1.9518    0.1601 H   0  0  0  0  0  0  0  0  0  0  0  0
   -2.0192    2.8447   -0.3988 H   0  0  0  0  0  0  0  0  0  0  0  0
  1  2  1  0
  2  3  1  0
  3  4  1  0
  4  5  2  0
  5  6  1  0
  6  7  2  0
  7  8  1  0
  2  9  1  0
  9 10  2  0
  9 11  1  0
  8  4  1  0
  1 12  1  0
  1 13  1  0
  2 14  1  1
  3 15  1  0
  3 16  1  0
  5 17  1  0
  7 18  1  0
  8 19  1  0
 11 20  1  0
M  END
$$$$

     RDKit          3D

 20 20  0  0  0  0  0  0  0  0999 V2000
   -1.5213   -0.1072   -1.4170 N   0  0  0  0  0  0  0  0  0  0  0  0
   -1.4049   -0.5529   -0.0402 C   0  0  1  0  0  0  0  0  0  0  0  0
   -0.0746   -1.1853    0.2075 C   0  0  0  0  0  0  0  0  0  0  0  0
    1.0750   -0.3126   -0.0277 C   0  0  0  0  0  0  0  0  0  0  0  0
    1.1426    0.9947   -0.4403 C   0  0  0  0  0  0  0  0  0  0  0  0
    2.4295    1.3355   -0.5014 N   0  0  0  0  0  0  0  0  0  0  0  0
    3.1597    0.2815   -0.1400 C   0  0  0  0  0  0  0  0  0  0  0  0
    2.3457   -0.7214    0.1486 N   0  0  0  0  0  0  0  0  0  0  0  0
   -1.7839    0.4784    0.9241 C   0  0  0  0  0  0  0  0  0  0  0  0
   -1.7464    0.2821    2.1632 O   0  0  0  0  0  0  0  0  0  0  0  0
   -2.2062    1.7326    0.5112 O   0  0  0  0  0  0  0  0  0  0  0  0
   -1.8915    0.8568   -1.4908 H   0  0  0  0  0  0  0  0  0  0  0  0
   -2.0910   -0.7460   -2.0086 H   0  0  0  0  0  0  0  0  0  0  0  0
   -2.1685   -1.3825    0.0635 H   0  0  0  0  0  0  0  0  0  0  0  0
   -0.0518   -1.5434    1.2663 H   0  0  0  0  0  0  0  0  0  0  0  0
    0.0229   -2.0848   -0.4234 H   0  0  0  0  0  0  0  0  0  0  0  0
    0.2717    1.6279   -0.6733 H   0  0  0  0  0  0  0  0  0  0  0  0
    4.2596    0.2430   -0.0875 H   0  0  0  0  0  0  0  0  0  0  0  0
    2.6921   -1.6719    0.4631 H   0  0  0  0  0  0  0  0  0  0  0  0
   -2.4586    2.4754    1.1710 H   0  0  0  0  0  0  0  0  0  0  0  0
  1  2  1  0
  2  3  1  0
  3  4  1  0
  4  5  2  0
  5  6  1  0
  6  7  2  0
  7  8  1  0
  2  9  1  0
  9 10  2  0
  9 11  1  0
  8  4  1  0
  1 12  1  0
  1 13  1  0
  2 14  1  6
  3 15  1  0
  3 16  1  0
  5 17  1  0
  7 18  1  0
  8 19  1  0
 11 20  1  0
M  END
$$$$

     RDKit          3D

 20 20  0  0  0  0  0  0  0  0999 V2000
   -1.0760   -1.3965   -1.0822 N   0  0  0  0  0  0  0  0  0  0  0  0
   -1.4329   -0.6044    0.0418 C   0  0  1  0  0  0  0  0  0  0  0  0
   -0.2915   -0.7055    1.0562 C   0  0  0  0  0  0  0  0  0  0  0  0
    0.9816   -0.2062    0.4715 C   0  0  0  0  0  0  0  0  0  0  0  0
    1.9233   -0.9679   -0.2222 C   0  0  0  0  0  0  0  0  0  0  0  0
    2.9455   -0.1874   -0.6041 N   0  0  0  0  0  0  0  0  0  0  0  0
    2.6813    1.0434   -0.1745 C   0  0  0  0  0  0  0  0  0  0  0  0
    1.4930    1.0388    0.4779 N   0  0  0  0  0  0  0  0  0  0  0  0
   -1.7607    0.7784   -0.2958 C   0  0  0  0  0  0  0  0  0  0  0  0
   -1.7102    1.1601   -1.4874 O   0  0  0  0  0  0  0  0  0  0  0  0
   -2.1291    1.6840    0.6800 O   0  0  0  0  0  0  0  0  0  0  0  0
   -1.7994   -2.0427   -1.4245 H   0  0  0  0  0  0  0  0  0  0  0  0
   -0.5194   -0.9275   -1.8100 H   0  0  0  0  0  0  0  0  0  0  0  0
   -2.3147   -1.0707    0.5465 H   0  0  0  0  0  0  0  0  0  0  0  0
   -0.5422   -0.1701    1.9902 H   0  0  0  0  0  0  0  0  0  0  0  0
   -0.2047   -1.7803    1.3025 H   0  0  0  0  0  0  0  0  0  0  0  0
    1.8719   -2.0191   -0.4368 H   0  0  0  0  0  0  0  0  0  0  0  0
    3.3227    1.9086   -0.3274 H   0  0  0  0  0  0  0  0  0  0  0  0
    1.0459    1.8801    0.9181 H   0  0  0  0  0  0  0  0  0  0  0  0
   -2.4844    2.5849    0.3802 H   0  0  0  0  0  0  0  0  0  0  0  0
  1  2  1  0
  2  3  1  0
  3  4  1  0
  4  5  2  0
  5  6  1  0
  6  7  2  0
  7  8  1  0
  2  9  1  0
  9 10  2  0
  9 11  1  0
  8  4  1  0
  1 12  1  0
  1 13  1  0
  2 14  1  1
  3 15  1  0
  3 16  1  0
  5 17  1  0
  7 18  1  0
  8 19  1  0
 11 20  1  0
M  END
$$$$

     RDKit          3D

 20 20  0  0  0  0  0  0  0  0999 V2000
    2.5509   -0.8890   -0.5185 N   0  0  0  0  0  0  0  0  0  0  0  0
    1.2252   -0.3026   -0.5575 C   0  0  1  0  0  0  0  0  0  0  0  0
    0.2437   -1.0716    0.2821 C   0  0  0  0  0  0  0  0  0  0  0  0
   -1.1028   -0.4535    0.2310 C   0  0  0  0  0  0  0  0  0  0  0  0
   -2.0836   -0.7424   -0.6996 C   0  0  0  0  0  0  0  0  0  0  0  0
   -3.1790   -0.0055   -0.4443 N   0  0  0  0  0  0  0  0  0  0  0  0
   -2.9238    0.7536    0.6337 C   0  0  0  0  0  0  0  0  0  0  0  0
   -1.6679    0.4708    1.0281 N   0  0  0  0  0  0  0  0  0  0  0  0
    1.2568    1.1481   -0.2742 C   0  0  0  0  0  0  0  0  0  0  0  0
    0.2158    1.8195   -0.3102 O   0  0  0  0  0  0  0  0  0  0  0  0
    2.4415    1.7807    0.0347 O   0  0  0  0  0  0  0  0  0  0  0  0
    2.4267   -1.9146   -0.6773 H   0  0  0  0  0  0  0  0  0  0  0  0
    3.0250   -0.6891    0.3856 H   0  0  0  0  0  0  0  0  0  0  0  0
    0.8962   -0.3930   -1.6355 H   0  0  0  0  0  0  0  0  0  0  0  0
    0.1992   -2.1260   -0.0713 H   0  0  0  0  0  0  0  0  0  0  0  0
    0.6006   -1.0629    1.3547 H   0  0  0  0  0  0  0  0  0  0  0  0
   -1.9738   -1.4611   -1.5132 H   0  0  0  0  0  0  0  0  0  0  0  0
   -3.6015    1.4762    1.1177 H   0  0  0  0  0  0  0  0  0  0  0  0
   -1.1772    0.8994    1.8464 H   0  0  0  0  0  0  0  0  0  0  0  0
    2.6281    2.7628   -0.2124 H   0  0  0  0  0  0  0  0  0  0  0  0
  1  2  1  0
  2  3  1  0
  3  4  1  0
  4  5  2  0
  5  6  1  0
  6  7  2  0
  7  8  1  0
  2  9  1  0
  9 10  2  0
  9 11  1  0
  8  4  1  0
  1 12  1  0
  1 13  1  0
  2 14  1  6
  3 15  1  0
  3 16  1  0
  5 17  1  0
  7 18  1  0
  8 19  1  0
 11 20  1  0
M  END
$$$$

     RDKit          3D

 20 20  0  0  0  0  0  0  0  0999 V2000
   -1.0844    1.0472    1.2188 N   0  0  0  0  0  0  0  0  0  0  0  0
   -1.1736    0.3062   -0.0250 C   0  0  1  0  0  0  0  0  0  0  0  0
   -0.0904   -0.7354   -0.1379 C   0  0  0  0  0  0  0  0  0  0  0  0
    1.2560   -0.1868   -0.0962 C   0  0  0  0  0  0  0  0  0  0  0  0
    1.6234    1.1421    0.0317 C   0  0  0  0  0  0  0  0  0  0  0  0
    2.9475    1.2200    0.0270 N   0  0  0  0  0  0  0  0  0  0  0  0
    3.4214   -0.0343   -0.1015 C   0  0  0  0  0  0  0  0  0  0  0  0
    2.3829   -0.9010   -0.1774 N   0  0  0  0  0  0  0  0  0  0  0  0
   -2.5293   -0.2830   -0.1809 C   0  0  0  0  0  0  0  0  0  0  0  0
   -3.4313   -0.1185    0.6935 O   0  0  0  0  0  0  0  0  0  0  0  0
   -2.8840   -1.0426   -1.2861 O   0  0  0  0  0  0  0  0  0  0  0  0
   -1.4866    0.5570    2.0260 H   0  0  0  0  0  0  0  0  0  0  0  0
   -1.5112    1.9910    1.1498 H   0  0  0  0  0  0  0  0  0  0  0  0
   -1.0577    1.0467   -0.8403 H   0  0  0  0  0  0  0  0  0  0  0  0
   -0.2596   -1.3432   -1.0447 H   0  0  0  0  0  0  0  0  0  0  0  0
   -0.2248   -1.4282    0.7395 H   0  0  0  0  0  0  0  0  0  0  0  0
    0.9061    1.9362    0.1170 H   0  0  0  0  0  0  0  0  0  0  0  0
    4.4812   -0.2496   -0.1328 H   0  0  0  0  0  0  0  0  0  0  0  0
    2.5358   -1.9219   -0.2798 H   0  0  0  0  0  0  0  0  0  0  0  0
   -3.8214   -1.0020   -1.7007 H   0  0  0  0  0  0  0  0  0  0  0  0
  1  2  1  0
  2  3  1  0
  3  4  1  0
  4  5  2  0
  5  6  1  0
  6  7  2  0
  7  8  1  0
  2  9  1  0
  9 10  2  0
  9 11  1  0
  8  4  1  0
  1 12  1  0
  1 13  1  0
  2 14  1  6
  3 15  1  0
  3 16  1  0
  5 17  1  0
  7 18  1  0
  8 19  1  0
 11 20  1  0
M  END
$$$$

     RDKit          3D

 20 20  0  0  0  0  0  0  0  0999 V2000
    1.3003   -1.3519    0.8767 N   0  0  0  0  0  0  0  0  0  0  0  0
    1.3681   -0.5792   -0.3489 C   0  0  1  0  0  0  0  0  0  0  0  0
    0.0983   -0.6783   -1.1543 C   0  0  0  0  0  0  0  0  0  0  0  0
   -1.0897   -0.2031   -0.4615 C   0  0  0  0  0  0  0  0  0  0  0  0
   -1.9180   -0.9721    0.3232 C   0  0  0  0  0  0  0  0  0  0  0  0
   -2.8967   -0.1720    0.7819 N   0  0  0  0  0  0  0  0  0  0  0  0
   -2.7172    1.0662    0.3180 C   0  0  0  0  0  0  0  0  0  0  0  0
   -1.6041    1.0347   -0.4445 N   0  0  0  0  0  0  0  0  0  0  0  0
    1.8229    0.7905   -0.1344 C   0  0  0  0  0  0  0  0  0  0  0  0
    1.9342    1.5833   -1.0949 O   0  0  0  0  0  0  0  0  0  0  0  0
    2.1422    1.2495    1.1290 O   0  0  0  0  0  0  0  0  0  0  0  0
    2.1923   -1.7942    1.1329 H   0  0  0  0  0  0  0  0  0  0  0  0
    0.7832   -0.8971    1.6335 H   0  0  0  0  0  0  0  0  0  0  0  0
    2.1598   -1.0930   -0.9730 H   0  0  0  0  0  0  0  0  0  0  0  0
    0.2670   -0.1045   -2.0911 H   0  0  0  0  0  0  0  0  0  0  0  0
   -0.0060   -1.7547   -1.4455 H   0  0  0  0  0  0  0  0  0  0  0  0
   -1.8700   -2.0222    0.5778 H   0  0  0  0  0  0  0  0  0  0  0  0
   -3.3766    1.8878    0.5497 H   0  0  0  0  0  0  0  0  0  0  0  0
   -1.2459    1.8958   -0.9288 H   0  0  0  0  0  0  0  0  0  0  0  0
    2.6561    2.1146    1.2950 H   0  0  0  0  0  0  0  0  0  0  0  0
  1  2  1  0
  2  3  1  0
  3  4  1  0
  4  5  2  0
  5  6  1  0
  6  7  2  0
  7  8  1  0
  2  9  1  0
  9 10  2  0
  9 11  1  0
  8  4  1  0
  1 12  1  0
  1 13  1  0
  2 14  1  6
  3 15  1  0
  3 16  1  0
  5 17  1  0
  7 18  1  0
  8 19  1  0
 11 20  1  0
M  END
$$$$

     RDKit          3D

 20 20  0  0  0  0  0  0  0  0999 V2000
    2.3823   -1.2693   -0.1981 N   0  0  0  0  0  0  0  0  0  0  0  0
    1.2044   -0.4614   -0.4806 C   0  0  1  0  0  0  0  0  0  0  0  0
    0.0924   -0.8964    0.4179 C   0  0  0  0  0  0  0  0  0  0  0  0
   -1.1380   -0.1112    0.1795 C   0  0  0  0  0  0  0  0  0  0  0  0
   -1.5828    1.0553    0.7613 C   0  0  0  0  0  0  0  0  0  0  0  0
   -2.7498    1.3635    0.2022 N   0  0  0  0  0  0  0  0  0  0  0  0
   -3.0779    0.4495   -0.7129 C   0  0  0  0  0  0  0  0  0  0  0  0
   -2.0851   -0.4565   -0.7252 N   0  0  0  0  0  0  0  0  0  0  0  0
    1.5091    0.9641   -0.3599 C   0  0  0  0  0  0  0  0  0  0  0  0
    0.6743    1.8556   -0.5831 O   0  0  0  0  0  0  0  0  0  0  0  0
    2.7878    1.3541    0.0215 O   0  0  0  0  0  0  0  0  0  0  0  0
    2.2362   -2.2140   -0.5793 H   0  0  0  0  0  0  0  0  0  0  0  0
    2.6679   -1.2314    0.7901 H   0  0  0  0  0  0  0  0  0  0  0  0
    0.9144   -0.7052   -1.5325 H   0  0  0  0  0  0  0  0  0  0  0  0
    0.3710   -0.7751    1.4886 H   0  0  0  0  0  0  0  0  0  0  0  0
   -0.1572   -1.9735    0.2471 H   0  0  0  0  0  0  0  0  0  0  0  0
   -1.0603    1.5987    1.5287 H   0  0  0  0  0  0  0  0  0  0  0  0
   -3.9612    0.4139   -1.3397 H   0  0  0  0  0  0  0  0  0  0  0  0
   -2.0610   -1.2939   -1.3432 H   0  0  0  0  0  0  0  0  0  0  0  0
    3.0332    2.3334   -0.0073 H   0  0  0  0  0  0  0  0  0  0  0  0
  1  2  1  0
  2  3  1  0
  3  4  1  0
  4  5  2  0
  5  6  1  0
  6  7  2  0
  7  8  1  0
  2  9  1  0
  9 10  2  0
  9 11  1  0
  8  4  1  0
  1 12  1  0
  1 13  1  0
  2 14  1  6
  3 15  1  0
  3 16  1  0
  5 17  1  0
  7 18  1  0
  8 19  1  0
 11 20  1  0
M  END
$$$$

     RDKit          3D

 20 20  0  0  0  0  0  0  0  0999 V2000
   -1.1347   -0.9671   -0.6974 N   0  0  0  0  0  0  0  0  0  0  0  0
   -1.0806    0.0149    0.3391 C   0  0  1  0  0  0  0  0  0  0  0  0
   -0.0374    1.0531   -0.0026 C   0  0  0  0  0  0  0  0  0  0  0  0
    1.2879    0.4012   -0.1328 C   0  0  0  0  0  0  0  0  0  0  0  0
    1.8346   -0.1254   -1.2796 C   0  0  0  0  0  0  0  0  0  0  0  0
    3.0522   -0.6164   -0.9416 N   0  0  0  0  0  0  0  0  0  0  0  0
    3.2324   -0.3926    0.3652 C   0  0  0  0  0  0  0  0  0  0  0  0
    2.1660    0.2257    0.8681 N   0  0  0  0  0  0  0  0  0  0  0  0
   -2.3775    0.6906    0.5352 C   0  0  0  0  0  0  0  0  0  0  0  0
   -2.4718    1.5848    1.4232 O   0  0  0  0  0  0  0  0  0  0  0  0
   -3.4807    0.3532   -0.2412 O   0  0  0  0  0  0  0  0  0  0  0  0
   -1.7304   -0.6488   -1.4835 H   0  0  0  0  0  0  0  0  0  0  0  0
   -1.4731   -1.8832   -0.3826 H   0  0  0  0  0  0  0  0  0  0  0  0
   -0.7627   -0.4896    1.2761 H   0  0  0  0  0  0  0  0  0  0  0  0
    0.0506    1.8164    0.7993 H   0  0  0  0  0  0  0  0  0  0  0  0
   -0.2759    1.5930   -0.9311 H   0  0  0  0  0  0  0  0  0  0  0  0
    1.3805   -0.1447   -2.2642 H   0  0  0  0  0  0  0  0  0  0  0  0
    4.1123   -0.6690    0.9422 H   0  0  0  0  0  0  0  0  0  0  0  0
    2.0517    0.5134    1.8612 H   0  0  0  0  0  0  0  0  0  0  0  0
   -4.3432    0.8790   -0.0531 H   0  0  0  0  0  0  0  0  0  0  0  0
  1  2  1  0
  2  3  1  0
  3  4  1  0
  4  5  2  0
  5  6  1  0
  6  7  2  0
  7  8  1  0
  2  9  1  0
  9 10  2  0
  9 11  1  0
  8  4  1  0
  1 12  1  0
  1 13  1  0
  2 14  1  1
  3 15  1  0
  3 16  1  0
  5 17  1  0
  7 18  1  0
  8 19  1  0
 11 20  1  0
M  END
$$$$

     RDKit          3D

 20 20  0  0  0  0  0  0  0  0999 V2000
   -2.4545   -0.0140    1.0734 N   0  0  0  0  0  0  0  0  0  0  0  0
   -1.1750    0.3181    0.4091 C   0  0  1  0  0  0  0  0  0  0  0  0
   -0.0747   -0.5519    0.9208 C   0  0  0  0  0  0  0  0  0  0  0  0
    1.2297   -0.2015    0.3177 C   0  0  0  0  0  0  0  0  0  0  0  0
    2.4109   -0.9519    0.4020 C   0  0  0  0  0  0  0  0  0  0  0  0
    3.3461   -0.2406   -0.2441 N   0  0  0  0  0  0  0  0  0  0  0  0
    2.7835    0.8868   -0.7043 C   0  0  0  0  0  0  0  0  0  0  0  0
    1.4858    0.9178   -0.3630 N   0  0  0  0  0  0  0  0  0  0  0  0
   -1.4137   -0.1106   -1.0231 C   0  0  0  0  0  0  0  0  0  0  0  0
   -0.5244   -0.1002   -1.8985 O   0  0  0  0  0  0  0  0  0  0  0  0
   -2.6663   -0.5483   -1.4474 O   0  0  0  0  0  0  0  0  0  0  0  0
   -3.1570    0.6157    0.5983 H   0  0  0  0  0  0  0  0  0  0  0  0
   -2.4078    0.2204    2.0848 H   0  0  0  0  0  0  0  0  0  0  0  0
   -1.0140    1.3736    0.5221 H   0  0  0  0  0  0  0  0  0  0  0  0
   -0.2467   -1.6336    0.6636 H   0  0  0  0  0  0  0  0  0  0  0  0
   -0.0288   -0.4546    2.0437 H   0  0  0  0  0  0  0  0  0  0  0  0
    2.4902   -1.8940    0.8946 H   0  0  0  0  0  0  0  0  0  0  0  0
    3.3538    1.6265   -1.2657 H   0  0  0  0  0  0  0  0  0  0  0  0
    0.8576    1.7125   -0.6043 H   0  0  0  0  0  0  0  0  0  0  0  0
   -2.7947   -0.9702   -2.3797 H   0  0  0  0  0  0  0  0  0  0  0  0
  1  2  1  0
  2  3  1  0
  3  4  1  0
  4  5  2  0
  5  6  1  0
  6  7  2  0
  7  8  1  0
  2  9  1  0
  9 10  2  0
  9 11  1  0
  8  4  1  0
  1 12  1  0
  1 13  1  0
  2 14  1  6
  3 15  1  0
  3 16  1  0
  5 17  1  0
  7 18  1  0
  8 19  1  0
 11 20  1  0
M  END
$$$$

     RDKit          3D

 20 20  0  0  0  0  0  0  0  0999 V2000
   -2.5085   -1.2710    0.4941 N   0  0  0  0  0  0  0  0  0  0  0  0
   -1.3494   -0.3577    0.4983 C   0  0  1  0  0  0  0  0  0  0  0  0
   -0.1230   -1.0995    0.1052 C   0  0  0  0  0  0  0  0  0  0  0  0
    1.0637   -0.2300    0.0957 C   0  0  0  0  0  0  0  0  0  0  0  0
    1.5471    0.4756   -0.9956 C   0  0  0  0  0  0  0  0  0  0  0  0
    2.6385    1.1417   -0.5844 N   0  0  0  0  0  0  0  0  0  0  0  0
    2.8550    0.8833    0.7081 C   0  0  0  0  0  0  0  0  0  0  0  0
    1.8958    0.0462    1.1273 N   0  0  0  0  0  0  0  0  0  0  0  0
   -1.6137    0.7460   -0.4221 C   0  0  0  0  0  0  0  0  0  0  0  0
   -2.6700    0.7200   -1.1422 O   0  0  0  0  0  0  0  0  0  0  0  0
   -0.7636    1.8237   -0.5446 O   0  0  0  0  0  0  0  0  0  0  0  0
   -2.2061   -2.1816    0.0814 H   0  0  0  0  0  0  0  0  0  0  0  0
   -2.7911   -1.4391    1.4838 H   0  0  0  0  0  0  0  0  0  0  0  0
   -1.2137    0.0551    1.5287 H   0  0  0  0  0  0  0  0  0  0  0  0
   -0.2512   -1.5320   -0.9118 H   0  0  0  0  0  0  0  0  0  0  0  0
    0.0179   -1.9517    0.8055 H   0  0  0  0  0  0  0  0  0  0  0  0
    1.1340    0.5011   -2.0169 H   0  0  0  0  0  0  0  0  0  0  0  0
    3.6785    1.2979    1.2910 H   0  0  0  0  0  0  0  0  0  0  0  0
    1.7906   -0.3415    2.0907 H   0  0  0  0  0  0  0  0  0  0  0  0
   -1.1308    2.7136   -0.8373 H   0  0  0  0  0  0  0  0  0  0  0  0
  1  2  1  0
  2  3  1  0
  3  4  1  0
  4  5  2  0
  5  6  1  0
  6  7  2  0
  7  8  1  0
  2  9  1  0
  9 10  2  0
  9 11  1  0
  8  4  1  0
  1 12  1  0
  1 13  1  0
  2 14  1  1
  3 15  1  0
  3 16  1  0
  5 17  1  0
  7 18  1  0
  8 19  1  0
 11 20  1  0
M  END
$$$$

     RDKit          3D

 20 20  0  0  0  0  0  0  0  0999 V2000
    2.3798   -0.0928   -1.2549 N   0  0  0  0  0  0  0  0  0  0  0  0
    1.1513    0.2946   -0.5869 C   0  0  1  0  0  0  0  0  0  0  0  0
    0.0862   -0.7633   -0.7371 C   0  0  0  0  0  0  0  0  0  0  0  0
   -1.1740   -0.4345   -0.0877 C   0  0  0  0  0  0  0  0  0  0  0  0
   -1.6060   -0.6983    1.1941 C   0  0  0  0  0  0  0  0  0  0  0  0
   -2.8644   -0.1948    1.3498 N   0  0  0  0  0  0  0  0  0  0  0  0
   -3.1988    0.3712    0.1753 C   0  0  0  0  0  0  0  0  0  0  0  0
   -2.1889    0.2248   -0.6745 N   0  0  0  0  0  0  0  0  0  0  0  0
    1.4728    0.6144    0.8037 C   0  0  0  0  0  0  0  0  0  0  0  0
    0.5558    0.9780    1.5760 O   0  0  0  0  0  0  0  0  0  0  0  0
    2.7538    0.5359    1.3196 O   0  0  0  0  0  0  0  0  0  0  0  0
    2.4526   -1.1206   -1.3938 H   0  0  0  0  0  0  0  0  0  0  0  0
    3.2225    0.3272   -0.8038 H   0  0  0  0  0  0  0  0  0  0  0  0
    0.7917    1.2332   -1.0821 H   0  0  0  0  0  0  0  0  0  0  0  0
    0.4911   -1.7088   -0.2700 H   0  0  0  0  0  0  0  0  0  0  0  0
   -0.0090   -0.9999   -1.8165 H   0  0  0  0  0  0  0  0  0  0  0  0
   -1.0497   -1.2200    1.9668 H   0  0  0  0  0  0  0  0  0  0  0  0
   -4.1559    0.8724   -0.0391 H   0  0  0  0  0  0  0  0  0  0  0  0
   -2.2091    0.5884   -1.6724 H   0  0  0  0  0  0  0  0  0  0  0  0
    3.0981    1.1928    2.0336 H   0  0  0  0  0  0  0  0  0  0  0  0
  1  2  1  0
  2  3  1  0
  3  4  1  0
  4  5  2  0
  5  6  1  0
  6  7  2  0
  7  8  1  0
  2  9  1  0
  9 10  2  0
  9 11  1  0
  8  4  1  0
  1 12  1  0
  1 13  1  0
  2 14  1  6
  3 15  1  0
  3 16  1  0
  5 17  1  0
  7 18  1  0
  8 19  1  0
 11 20  1  0
M  END
$$$$

     RDKit          3D

 20 20  0  0  0  0  0  0  0  0999 V2000
   -1.3978    1.4936    0.6978 N   0  0  0  0  0  0  0  0  0  0  0  0
   -1.4458    0.3516   -0.1629 C   0  0  1  0  0  0  0  0  0  0  0  0
   -0.2679    0.2551   -1.0987 C   0  0  0  0  0  0  0  0  0  0  0  0
    1.0180    0.1610   -0.4335 C   0  0  0  0  0  0  0  0  0  0  0  0
    1.8102    1.2257   -0.0754 C   0  0  0  0  0  0  0  0  0  0  0  0
    2.9201    0.7443    0.5171 N   0  0  0  0  0  0  0  0  0  0  0  0
    2.8471   -0.5923    0.5411 C   0  0  0  0  0  0  0  0  0  0  0  0
    1.6744   -0.9384   -0.0457 N   0  0  0  0  0  0  0  0  0  0  0  0
   -1.6843   -0.9155    0.5816 C   0  0  0  0  0  0  0  0  0  0  0  0
   -1.8161   -0.8955    1.8143 O   0  0  0  0  0  0  0  0  0  0  0  0
   -1.7589   -2.1121   -0.0971 O   0  0  0  0  0  0  0  0  0  0  0  0
   -2.3452    1.8863    0.9200 H   0  0  0  0  0  0  0  0  0  0  0  0
   -0.8249    2.2678    0.3300 H   0  0  0  0  0  0  0  0  0  0  0  0
   -2.3505    0.4813   -0.8276 H   0  0  0  0  0  0  0  0  0  0  0  0
   -0.3590    1.1014   -1.8184 H   0  0  0  0  0  0  0  0  0  0  0  0
   -0.4333   -0.6663   -1.7167 H   0  0  0  0  0  0  0  0  0  0  0  0
    1.6456    2.2944   -0.2091 H   0  0  0  0  0  0  0  0  0  0  0  0
    3.6006   -1.2491    0.9585 H   0  0  0  0  0  0  0  0  0  0  0  0
    1.3823   -1.9515   -0.1492 H   0  0  0  0  0  0  0  0  0  0  0  0
   -2.2146   -2.9417    0.2740 H   0  0  0  0  0  0  0  0  0  0  0  0
  1  2  1  0
  2  3  1  0
  3  4  1  0
  4  5  2  0
  5  6  1  0
  6  7  2  0
  7  8  1  0
  2  9  1  0
  9 10  2  0
  9 11  1  0
  8  4  1  0
  1 12  1  0
  1 13  1  0
  2 14  1  6
  3 15  1  0
  3 16  1  0
  5 17  1  0
  7 18  1  0
  8 19  1  0
 11 20  1  0
M  END
$$$$

     RDKit          3D

 20 20  0  0  0  0  0  0  0  0999 V2000
   -1.0446   -1.5057    0.5688 N   0  0  0  0  0  0  0  0  0  0  0  0
   -1.1610   -0.0642    0.4547 C   0  0  1  0  0  0  0  0  0  0  0  0
   -0.1605    0.4270   -0.5691 C   0  0  0  0  0  0  0  0  0  0  0  0
    1.2261    0.0913   -0.1788 C   0  0  0  0  0  0  0  0  0  0  0  0
    1.9387   -1.0369   -0.4823 C   0  0  0  0  0  0  0  0  0  0  0  0
    3.1748   -0.9339    0.0778 N   0  0  0  0  0  0  0  0  0  0  0  0
    3.2413    0.2513    0.7301 C   0  0  0  0  0  0  0  0  0  0  0  0
    2.0579    0.8677    0.5710 N   0  0  0  0  0  0  0  0  0  0  0  0
   -2.5381    0.3075    0.0861 C   0  0  0  0  0  0  0  0  0  0  0  0
   -3.3992   -0.5781   -0.0785 O   0  0  0  0  0  0  0  0  0  0  0  0
   -2.8925    1.6407   -0.0815 O   0  0  0  0  0  0  0  0  0  0  0  0
   -1.9788   -1.9260    0.7647 H   0  0  0  0  0  0  0  0  0  0  0  0
   -0.7551   -1.8511   -0.3745 H   0  0  0  0  0  0  0  0  0  0  0  0
   -0.8897    0.3941    1.4309 H   0  0  0  0  0  0  0  0  0  0  0  0
   -0.3721   -0.0905   -1.5283 H   0  0  0  0  0  0  0  0  0  0  0  0
   -0.2655    1.5040   -0.7624 H   0  0  0  0  0  0  0  0  0  0  0  0
    1.5779   -1.8692   -1.0689 H   0  0  0  0  0  0  0  0  0  0  0  0
    4.0795    0.6662    1.2919 H   0  0  0  0  0  0  0  0  0  0  0  0
    1.7512    1.8008    0.9377 H   0  0  0  0  0  0  0  0  0  0  0  0
   -3.5906    1.9048   -0.7568 H   0  0  0  0  0  0  0  0  0  0  0  0
  1  2  1  0
  2  3  1  0
  3  4  1  0
  4  5  2  0
  5  6  1  0
  6  7  2  0
  7  8  1  0
  2  9  1  0
  9 10  2  0
  9 11  1  0
  8  4  1  0
  1 12  1  0
  1 13  1  0
  2 14  1  1
  3 15  1  0
  3 16  1  0
  5 17  1  0
  7 18  1  0
  8 19  1  0
 11 20  1  0
M  END
$$$$

     RDKit          3D

 20 20  0  0  0  0  0  0  0  0999 V2000
   -2.5544   -1.0207    0.4530 N   0  0  0  0  0  0  0  0  0  0  0  0
   -1.3839   -0.1617    0.3444 C   0  0  1  0  0  0  0  0  0  0  0  0
   -0.2014   -1.0704    0.1302 C   0  0  0  0  0  0  0  0  0  0  0  0
    1.0577   -0.3072    0.0041 C   0  0  0  0  0  0  0  0  0  0  0  0
    1.6300    0.1888   -1.1437 C   0  0  0  0  0  0  0  0  0  0  0  0
    2.7596    0.8092   -0.7858 N   0  0  0  0  0  0  0  0  0  0  0  0
    2.8983    0.7104    0.5388 C   0  0  0  0  0  0  0  0  0  0  0  0
    1.8579    0.0276    1.0242 N   0  0  0  0  0  0  0  0  0  0  0  0
   -1.6024    0.8046   -0.7388 C   0  0  0  0  0  0  0  0  0  0  0  0
   -2.6609    0.8252   -1.4337 O   0  0  0  0  0  0  0  0  0  0  0  0
   -0.6394    1.7541   -1.0524 O   0  0  0  0  0  0  0  0  0  0  0  0
   -2.8404   -1.1447    1.4649 H   0  0  0  0  0  0  0  0  0  0  0  0
   -2.3709   -1.9746    0.0821 H   0  0  0  0  0  0  0  0  0  0  0  0
   -1.1976    0.3994    1.2833 H   0  0  0  0  0  0  0  0  0  0  0  0
   -0.3567   -1.7300   -0.7549 H   0  0  0  0  0  0  0  0  0  0  0  0
   -0.1698   -1.7590    1.0064 H   0  0  0  0  0  0  0  0  0  0  0  0
    1.2593    0.1093   -2.1702 H   0  0  0  0  0  0  0  0  0  0  0  0
    3.7080    1.1043    1.1675 H   0  0  0  0  0  0  0  0  0  0  0  0
    1.6883   -0.2122    2.0435 H   0  0  0  0  0  0  0  0  0  0  0  0
   -0.8813    2.6478   -1.4629 H   0  0  0  0  0  0  0  0  0  0  0  0
  1  2  1  0
  2  3  1  0
  3  4  1  0
  4  5  2  0
  5  6  1  0
  6  7  2  0
  7  8  1  0
  2  9  1  0
  9 10  2  0
  9 11  1  0
  8  4  1  0
  1 12  1  0
  1 13  1  0
  2 14  1  1
  3 15  1  0
  3 16  1  0
  5 17  1  0
  7 18  1  0
  8 19  1  0
 11 20  1  0
M  END
$$$$

     RDKit          3D

 20 20  0  0  0  0  0  0  0  0999 V2000
    1.4170   -0.5572    1.3660 N   0  0  0  0  0  0  0  0  0  0  0  0
    1.2199   -0.3821   -0.0347 C   0  0  1  0  0  0  0  0  0  0  0  0
    0.0551    0.4693   -0.4052 C   0  0  0  0  0  0  0  0  0  0  0  0
   -1.2436   -0.0371    0.0717 C   0  0  0  0  0  0  0  0  0  0  0  0
   -1.5734   -1.1444    0.7912 C   0  0  0  0  0  0  0  0  0  0  0  0
   -2.9086   -1.1525    0.9682 N   0  0  0  0  0  0  0  0  0  0  0  0
   -3.4189   -0.0800    0.3781 C   0  0  0  0  0  0  0  0  0  0  0  0
   -2.4023    0.6042   -0.1712 N   0  0  0  0  0  0  0  0  0  0  0  0
    2.4441    0.2664   -0.5849 C   0  0  0  0  0  0  0  0  0  0  0  0
    3.4300    0.5704    0.1345 O   0  0  0  0  0  0  0  0  0  0  0  0
    2.5569    0.5727   -1.9492 O   0  0  0  0  0  0  0  0  0  0  0  0
    2.2067   -1.2238    1.5022 H   0  0  0  0  0  0  0  0  0  0  0  0
    1.6027    0.3347    1.8530 H   0  0  0  0  0  0  0  0  0  0  0  0
    1.1342   -1.3653   -0.5359 H   0  0  0  0  0  0  0  0  0  0  0  0
    0.0055    0.5174   -1.5137 H   0  0  0  0  0  0  0  0  0  0  0  0
    0.2688    1.5081   -0.0616 H   0  0  0  0  0  0  0  0  0  0  0  0
   -0.8750   -1.8756    1.1483 H   0  0  0  0  0  0  0  0  0  0  0  0
   -4.4836    0.1494    0.3750 H   0  0  0  0  0  0  0  0  0  0  0  0
   -2.5360    1.4978   -0.7003 H   0  0  0  0  0  0  0  0  0  0  0  0
    3.1004    1.3278   -2.3057 H   0  0  0  0  0  0  0  0  0  0  0  0
  1  2  1  0
  2  3  1  0
  3  4  1  0
  4  5  2  0
  5  6  1  0
  6  7  2  0
  7  8  1  0
  2  9  1  0
  9 10  2  0
  9 11  1  0
  8  4  1  0
  1 12  1  0
  1 13  1  0
  2 14  1  6
  3 15  1  0
  3 16  1  0
  5 17  1  0
  7 18  1  0
  8 19  1  0
 11 20  1  0
M  END
$$$$

     RDKit          3D

 20 20  0  0  0  0  0  0  0  0999 V2000
   -0.7236    1.4116   -0.8496 N   0  0  0  0  0  0  0  0  0  0  0  0
   -1.1244    0.1264   -0.3273 C   0  0  1  0  0  0  0  0  0  0  0  0
   -0.1766   -0.3152    0.7749 C   0  0  0  0  0  0  0  0  0  0  0  0
    1.2129   -0.4334    0.2641 C   0  0  0  0  0  0  0  0  0  0  0  0
    1.7877   -1.5645   -0.2818 C   0  0  0  0  0  0  0  0  0  0  0  0
    3.0571   -1.2410   -0.6151 N   0  0  0  0  0  0  0  0  0  0  0  0
    3.2988    0.0315   -0.3043 C   0  0  0  0  0  0  0  0  0  0  0  0
    2.1705    0.5256    0.2336 N   0  0  0  0  0  0  0  0  0  0  0  0
   -2.5231    0.1851    0.1551 C   0  0  0  0  0  0  0  0  0  0  0  0
   -3.2179    1.2313    0.0943 O   0  0  0  0  0  0  0  0  0  0  0  0
   -3.1239   -0.9427    0.7030 O   0  0  0  0  0  0  0  0  0  0  0  0
   -1.0124    2.1769   -0.1905 H   0  0  0  0  0  0  0  0  0  0  0  0
   -1.1505    1.6033   -1.7727 H   0  0  0  0  0  0  0  0  0  0  0  0
   -1.1014   -0.6030   -1.1736 H   0  0  0  0  0  0  0  0  0  0  0  0
   -0.2206    0.4748    1.5617 H   0  0  0  0  0  0  0  0  0  0  0  0
   -0.5384   -1.2431    1.2622 H   0  0  0  0  0  0  0  0  0  0  0  0
    1.2700   -2.5129   -0.3982 H   0  0  0  0  0  0  0  0  0  0  0  0
    4.2319    0.5798   -0.4533 H   0  0  0  0  0  0  0  0  0  0  0  0
    2.0209    1.5062    0.5878 H   0  0  0  0  0  0  0  0  0  0  0  0
   -4.1372   -0.9969    0.7297 H   0  0  0  0  0  0  0  0  0  0  0  0
  1  2  1  0
  2  3  1  0
  3  4  1  0
  4  5  2  0
  5  6  1  0
  6  7  2  0
  7  8  1  0
  2  9  1  0
  9 10  2  0
  9 11  1  0
  8  4  1  0
  1 12  1  0
  1 13  1  0
  2 14  1  6
  3 15  1  0
  3 16  1  0
  5 17  1  0
  7 18  1  0
  8 19  1  0
 11 20  1  0
M  END
$$$$

     RDKit          3D

 20 20  0  0  0  0  0  0  0  0999 V2000
   -2.1997   -0.5989    1.4354 N   0  0  0  0  0  0  0  0  0  0  0  0
   -1.0797    0.0752    0.8069 C   0  0  1  0  0  0  0  0  0  0  0  0
   -0.0216   -0.9402    0.4546 C   0  0  0  0  0  0  0  0  0  0  0  0
    1.1614   -0.3481   -0.1924 C   0  0  0  0  0  0  0  0  0  0  0  0
    1.3886   -0.1517   -1.5357 C   0  0  0  0  0  0  0  0  0  0  0  0
    2.5960    0.4215   -1.7222 N   0  0  0  0  0  0  0  0  0  0  0  0
    3.1354    0.5894   -0.5026 C   0  0  0  0  0  0  0  0  0  0  0  0
    2.2582    0.1191    0.4271 N   0  0  0  0  0  0  0  0  0  0  0  0
   -1.5909    0.8264   -0.3515 C   0  0  0  0  0  0  0  0  0  0  0  0
   -0.7962    1.4955   -1.0419 O   0  0  0  0  0  0  0  0  0  0  0  0
   -2.9232    0.8111   -0.6948 O   0  0  0  0  0  0  0  0  0  0  0  0
   -3.0173   -0.6983    0.8231 H   0  0  0  0  0  0  0  0  0  0  0  0
   -1.8640   -1.5038    1.7950 H   0  0  0  0  0  0  0  0  0  0  0  0
   -0.6878    0.7910    1.5879 H   0  0  0  0  0  0  0  0  0  0  0  0
   -0.5159   -1.7153   -0.1915 H   0  0  0  0  0  0  0  0  0  0  0  0
    0.2293   -1.4750    1.3972 H   0  0  0  0  0  0  0  0  0  0  0  0
    0.7086   -0.4154   -2.3148 H   0  0  0  0  0  0  0  0  0  0  0  0
    4.1103    1.0315   -0.3480 H   0  0  0  0  0  0  0  0  0  0  0  0
    2.4787    0.1525    1.4463 H   0  0  0  0  0  0  0  0  0  0  0  0
   -3.3702    1.5335   -1.2782 H   0  0  0  0  0  0  0  0  0  0  0  0
  1  2  1  0
  2  3  1  0
  3  4  1  0
  4  5  2  0
  5  6  1  0
  6  7  2  0
  7  8  1  0
  2  9  1  0
  9 10  2  0
  9 11  1  0
  8  4  1  0
  1 12  1  0
  1 13  1  0
  2 14  1  1
  3 15  1  0
  3 16  1  0
  5 17  1  0
  7 18  1  0
  8 19  1  0
 11 20  1  0
M  END
$$$$

     RDKit          3D

 20 20  0  0  0  0  0  0  0  0999 V2000
   -0.8236   -1.6897   -0.5805 N   0  0  0  0  0  0  0  0  0  0  0  0
   -1.2003   -0.4583    0.0684 C   0  0  1  0  0  0  0  0  0  0  0  0
   -0.3026    0.6840   -0.2487 C   0  0  0  0  0  0  0  0  0  0  0  0
    1.1050    0.4844    0.1351 C   0  0  0  0  0  0  0  0  0  0  0  0
    1.7112    0.7996    1.3313 C   0  0  0  0  0  0  0  0  0  0  0  0
    3.0173    0.4617    1.2937 N   0  0  0  0  0  0  0  0  0  0  0  0
    3.2159   -0.0664    0.0621 C   0  0  0  0  0  0  0  0  0  0  0  0
    2.0725   -0.0516   -0.6275 N   0  0  0  0  0  0  0  0  0  0  0  0
   -2.5903   -0.0636   -0.2198 C   0  0  0  0  0  0  0  0  0  0  0  0
   -3.3063   -0.7675   -0.9549 O   0  0  0  0  0  0  0  0  0  0  0  0
   -3.1082    1.0888    0.3229 O   0  0  0  0  0  0  0  0  0  0  0  0
   -1.2499   -2.5185   -0.1560 H   0  0  0  0  0  0  0  0  0  0  0  0
    0.2110   -1.7612   -0.7063 H   0  0  0  0  0  0  0  0  0  0  0  0
   -1.1134   -0.6524    1.1753 H   0  0  0  0  0  0  0  0  0  0  0  0
   -0.3915    0.8869   -1.3566 H   0  0  0  0  0  0  0  0  0  0  0  0
   -0.7298    1.5948    0.2316 H   0  0  0  0  0  0  0  0  0  0  0  0
    1.1945    1.2591    2.1840 H   0  0  0  0  0  0  0  0  0  0  0  0
    4.2031   -0.4299   -0.2446 H   0  0  0  0  0  0  0  0  0  0  0  0
    1.9759   -0.4069   -1.6032 H   0  0  0  0  0  0  0  0  0  0  0  0
   -3.8906    1.6066   -0.1062 H   0  0  0  0  0  0  0  0  0  0  0  0
  1  2  1  0
  2  3  1  0
  3  4  1  0
  4  5  2  0
  5  6  1  0
  6  7  2  0
  7  8  1  0
  2  9  1  0
  9 10  2  0
  9 11  1  0
  8  4  1  0
  1 12  1  0
  1 13  1  0
  2 14  1  1
  3 15  1  0
  3 16  1  0
  5 17  1  0
  7 18  1  0
  8 19  1  0
 11 20  1  0
M  END
$$$$

     RDKit          3D

 20 20  0  0  0  0  0  0  0  0999 V2000
   -0.8625    1.8816   -0.3218 N   0  0  0  0  0  0  0  0  0  0  0  0
   -1.2397    0.5032   -0.5639 C   0  0  1  0  0  0  0  0  0  0  0  0
   -0.1350   -0.3127   -1.1513 C   0  0  0  0  0  0  0  0  0  0  0  0
    1.0723   -0.3886   -0.3074 C   0  0  0  0  0  0  0  0  0  0  0  0
    2.1968   -1.0978   -0.6813 C   0  0  0  0  0  0  0  0  0  0  0  0
    3.1193   -0.9743    0.2927 N   0  0  0  0  0  0  0  0  0  0  0  0
    2.5957   -0.2089    1.2570 C   0  0  0  0  0  0  0  0  0  0  0  0
    1.3439    0.1497    0.8908 N   0  0  0  0  0  0  0  0  0  0  0  0
   -1.8823   -0.1133    0.6093 C   0  0  0  0  0  0  0  0  0  0  0  0
   -2.0476    0.5408    1.6467 O   0  0  0  0  0  0  0  0  0  0  0  0
   -2.2966   -1.4240    0.5392 O   0  0  0  0  0  0  0  0  0  0  0  0
   -1.0796    2.4906   -1.1423 H   0  0  0  0  0  0  0  0  0  0  0  0
   -1.3775    2.3002    0.4958 H   0  0  0  0  0  0  0  0  0  0  0  0
   -2.0416    0.5564   -1.3606 H   0  0  0  0  0  0  0  0  0  0  0  0
   -0.5202   -1.3507   -1.2604 H   0  0  0  0  0  0  0  0  0  0  0  0
    0.0690    0.0567   -2.1673 H   0  0  0  0  0  0  0  0  0  0  0  0
    2.3554   -1.6742   -1.5990 H   0  0  0  0  0  0  0  0  0  0  0  0
    3.0224    0.1180    2.1973 H   0  0  0  0  0  0  0  0  0  0  0  0
    0.6850    0.7461    1.4379 H   0  0  0  0  0  0  0  0  0  0  0  0
   -2.9772   -1.7988    1.1887 H   0  0  0  0  0  0  0  0  0  0  0  0
  1  2  1  0
  2  3  1  0
  3  4  1  0
  4  5  2  0
  5  6  1  0
  6  7  2  0
  7  8  1  0
  2  9  1  0
  9 10  2  0
  9 11  1  0
  8  4  1  0
  1 12  1  0
  1 13  1  0
  2 14  1  6
  3 15  1  0
  3 16  1  0
  5 17  1  0
  7 18  1  0
  8 19  1  0
 11 20  1  0
M  END
$$$$

     RDKit          3D

 20 20  0  0  0  0  0  0  0  0999 V2000
   -0.9498   -1.6018   -0.2111 N   0  0  0  0  0  0  0  0  0  0  0  0
   -1.1259   -0.2783    0.3480 C   0  0  1  0  0  0  0  0  0  0  0  0
   -0.2100    0.6688   -0.3986 C   0  0  0  0  0  0  0  0  0  0  0  0
    1.2076    0.2908   -0.2825 C   0  0  0  0  0  0  0  0  0  0  0  0
    1.8720   -0.5566   -1.1554 C   0  0  0  0  0  0  0  0  0  0  0  0
    3.1452   -0.6667   -0.7337 N   0  0  0  0  0  0  0  0  0  0  0  0
    3.3210    0.0759    0.3728 C   0  0  0  0  0  0  0  0  0  0  0  0
    2.1307    0.6479    0.6276 N   0  0  0  0  0  0  0  0  0  0  0  0
   -2.5380    0.1607    0.2008 C   0  0  0  0  0  0  0  0  0  0  0  0
   -3.4139   -0.5499   -0.3376 O   0  0  0  0  0  0  0  0  0  0  0  0
   -2.9118    1.4096    0.6771 O   0  0  0  0  0  0  0  0  0  0  0  0
   -1.3445   -1.6984   -1.1574 H   0  0  0  0  0  0  0  0  0  0  0  0
   -1.3060   -2.3593    0.4098 H   0  0  0  0  0  0  0  0  0  0  0  0
   -0.8772   -0.2837    1.4147 H   0  0  0  0  0  0  0  0  0  0  0  0
   -0.5478    0.6961   -1.4661 H   0  0  0  0  0  0  0  0  0  0  0  0
   -0.4215    1.6871    0.0111 H   0  0  0  0  0  0  0  0  0  0  0  0
    1.4920   -1.0665   -2.0320 H   0  0  0  0  0  0  0  0  0  0  0  0
    4.2532    0.1881    0.9482 H   0  0  0  0  0  0  0  0  0  0  0  0
    1.9091    1.2925    1.4194 H   0  0  0  0  0  0  0  0  0  0  0  0
   -3.6842    1.9436    0.2612 H   0  0  0  0  0  0  0  0  0  0  0  0
  1  2  1  0
  2  3  1  0
  3  4  1  0
  4  5  2  0
  5  6  1  0
  6  7  2  0
  7  8  1  0
  2  9  1  0
  9 10  2  0
  9 11  1  0
  8  4  1  0
  1 12  1  0
  1 13  1  0
  2 14  1  1
  3 15  1  0
  3 16  1  0
  5 17  1  0
  7 18  1  0
  8 19  1  0
 11 20  1  0
M  END
$$$$

     RDKit          3D

 20 20  0  0  0  0  0  0  0  0999 V2000
   -2.5082   -1.1578   -0.5178 N   0  0  0  0  0  0  0  0  0  0  0  0
   -1.2850   -0.7901    0.2531 C   0  0  1  0  0  0  0  0  0  0  0  0
   -0.2968   -0.3883   -0.7759 C   0  0  0  0  0  0  0  0  0  0  0  0
    1.0393   -0.0177   -0.2985 C   0  0  0  0  0  0  0  0  0  0  0  0
    1.6345   -0.1156    0.9191 C   0  0  0  0  0  0  0  0  0  0  0  0
    2.8985    0.3974    0.8696 N   0  0  0  0  0  0  0  0  0  0  0  0
    3.0687    0.8057   -0.3806 C   0  0  0  0  0  0  0  0  0  0  0  0
    1.9705    0.5709   -1.1094 N   0  0  0  0  0  0  0  0  0  0  0  0
   -1.7249    0.2940    1.1400 C   0  0  0  0  0  0  0  0  0  0  0  0
   -2.9337    0.6361    1.1306 O   0  0  0  0  0  0  0  0  0  0  0  0
   -0.9263    1.0036    2.0134 O   0  0  0  0  0  0  0  0  0  0  0  0
   -2.6904   -0.3450   -1.1610 H   0  0  0  0  0  0  0  0  0  0  0  0
   -2.2171   -1.9609   -1.1203 H   0  0  0  0  0  0  0  0  0  0  0  0
   -1.0230   -1.6649    0.8570 H   0  0  0  0  0  0  0  0  0  0  0  0
   -0.7141    0.4548   -1.3862 H   0  0  0  0  0  0  0  0  0  0  0  0
   -0.2524   -1.2389   -1.5218 H   0  0  0  0  0  0  0  0  0  0  0  0
    1.1920   -0.5493    1.8023 H   0  0  0  0  0  0  0  0  0  0  0  0
    4.0122    1.2692   -0.7130 H   0  0  0  0  0  0  0  0  0  0  0  0
    1.8711    0.8041   -2.1093 H   0  0  0  0  0  0  0  0  0  0  0  0
   -1.1152    1.9928    2.1086 H   0  0  0  0  0  0  0  0  0  0  0  0
  1  2  1  0
  2  3  1  0
  3  4  1  0
  4  5  2  0
  5  6  1  0
  6  7  2  0
  7  8  1  0
  2  9  1  0
  9 10  2  0
  9 11  1  0
  8  4  1  0
  1 12  1  0
  1 13  1  0
  2 14  1  1
  3 15  1  0
  3 16  1  0
  5 17  1  0
  7 18  1  0
  8 19  1  0
 11 20  1  0
M  END
$$$$

     RDKit          3D

 20 20  0  0  0  0  0  0  0  0999 V2000
    0.8609   -1.2966   -0.2298 N   0  0  0  0  0  0  0  0  0  0  0  0
    1.0557    0.1418   -0.4166 C   0  0  1  0  0  0  0  0  0  0  0  0
    0.1382    0.8270    0.5748 C   0  0  0  0  0  0  0  0  0  0  0  0
   -1.2484    0.3973    0.2425 C   0  0  0  0  0  0  0  0  0  0  0  0
   -2.1168    1.0283   -0.6361 C   0  0  0  0  0  0  0  0  0  0  0  0
   -3.2583    0.3052   -0.6346 N   0  0  0  0  0  0  0  0  0  0  0  0
   -3.1385   -0.7351    0.1967 C   0  0  0  0  0  0  0  0  0  0  0  0
   -1.9122   -0.6715    0.7263 N   0  0  0  0  0  0  0  0  0  0  0  0
    2.4629    0.4983   -0.2536 C   0  0  0  0  0  0  0  0  0  0  0  0
    2.8206    1.6926   -0.3784 O   0  0  0  0  0  0  0  0  0  0  0  0
    3.4319   -0.4447    0.0376 O   0  0  0  0  0  0  0  0  0  0  0  0
    1.1653   -1.5236    0.7313 H   0  0  0  0  0  0  0  0  0  0  0  0
    1.3748   -1.8486   -0.9432 H   0  0  0  0  0  0  0  0  0  0  0  0
    0.6668    0.3839   -1.4255 H   0  0  0  0  0  0  0  0  0  0  0  0
    0.4064    0.5544    1.6265 H   0  0  0  0  0  0  0  0  0  0  0  0
    0.2067    1.9241    0.5202 H   0  0  0  0  0  0  0  0  0  0  0  0
   -1.9311    1.9292   -1.2199 H   0  0  0  0  0  0  0  0  0  0  0  0
   -3.8924   -1.4669    0.3871 H   0  0  0  0  0  0  0  0  0  0  0  0
   -1.4864   -1.3285    1.4160 H   0  0  0  0  0  0  0  0  0  0  0  0
    4.3938   -0.3667   -0.3213 H   0  0  0  0  0  0  0  0  0  0  0  0
  1  2  1  0
  2  3  1  0
  3  4  1  0
  4  5  2  0
  5  6  1  0
  6  7  2  0
  7  8  1  0
  2  9  1  0
  9 10  2  0
  9 11  1  0
  8  4  1  0
  1 12  1  0
  1 13  1  0
  2 14  1  6
  3 15  1  0
  3 16  1  0
  5 17  1  0
  7 18  1  0
  8 19  1  0
 11 20  1  0
M  END
$$$$

     RDKit          3D

 20 20  0  0  0  0  0  0  0  0999 V2000
   -2.1984    1.3301   -1.0982 N   0  0  0  0  0  0  0  0  0  0  0  0
   -1.2018    0.2524   -0.8050 C   0  0  1  0  0  0  0  0  0  0  0  0
   -0.0474    0.9730   -0.2058 C   0  0  0  0  0  0  0  0  0  0  0  0
    1.1263    0.1768    0.1447 C   0  0  0  0  0  0  0  0  0  0  0  0
    2.1873    0.7238    0.8795 C   0  0  0  0  0  0  0  0  0  0  0  0
    3.1213   -0.2226    1.0164 N   0  0  0  0  0  0  0  0  0  0  0  0
    2.7357   -1.3391    0.4213 C   0  0  0  0  0  0  0  0  0  0  0  0
    1.5147   -1.0754   -0.1060 N   0  0  0  0  0  0  0  0  0  0  0  0
   -1.9035   -0.6294    0.1545 C   0  0  0  0  0  0  0  0  0  0  0  0
   -3.0778   -0.3750    0.4862 O   0  0  0  0  0  0  0  0  0  0  0  0
   -1.2901   -1.7259    0.6914 O   0  0  0  0  0  0  0  0  0  0  0  0
   -2.8193    1.4703   -0.2884 H   0  0  0  0  0  0  0  0  0  0  0  0
   -1.7102    2.2207   -1.2961 H   0  0  0  0  0  0  0  0  0  0  0  0
   -0.9790   -0.2216   -1.7636 H   0  0  0  0  0  0  0  0  0  0  0  0
    0.2193    1.7977   -0.9321 H   0  0  0  0  0  0  0  0  0  0  0  0
   -0.4070    1.4973    0.7069 H   0  0  0  0  0  0  0  0  0  0  0  0
    2.2335    1.7271    1.2614 H   0  0  0  0  0  0  0  0  0  0  0  0
    3.3109   -2.2497    0.3888 H   0  0  0  0  0  0  0  0  0  0  0  0
    0.9728   -1.7684   -0.6474 H   0  0  0  0  0  0  0  0  0  0  0  0
   -1.7873   -2.5618    0.9915 H   0  0  0  0  0  0  0  0  0  0  0  0
  1  2  1  0
  2  3  1  0
  3  4  1  0
  4  5  2  0
  5  6  1  0
  6  7  2  0
  7  8  1  0
  2  9  1  0
  9 10  2  0
  9 11  1  0
  8  4  1  0
  1 12  1  0
  1 13  1  0
  2 14  1  6
  3 15  1  0
  3 16  1  0
  5 17  1  0
  7 18  1  0
  8 19  1  0
 11 20  1  0
M  END
$$$$

     RDKit          3D

 20 20  0  0  0  0  0  0  0  0999 V2000
   -2.2871   -1.2435   -0.5573 N   0  0  0  0  0  0  0  0  0  0  0  0
   -1.1165   -0.7271    0.0802 C   0  0  1  0  0  0  0  0  0  0  0  0
   -0.1009   -0.4462   -1.0250 C   0  0  0  0  0  0  0  0  0  0  0  0
    1.1665    0.0957   -0.5105 C   0  0  0  0  0  0  0  0  0  0  0  0
    1.5168    1.4105   -0.3174 C   0  0  0  0  0  0  0  0  0  0  0  0
    2.7894    1.4226    0.1771 N   0  0  0  0  0  0  0  0  0  0  0  0
    3.2313    0.1582    0.2936 C   0  0  0  0  0  0  0  0  0  0  0  0
    2.2413   -0.6409   -0.1254 N   0  0  0  0  0  0  0  0  0  0  0  0
   -1.4773    0.5202    0.8007 C   0  0  0  0  0  0  0  0  0  0  0  0
   -0.6340    1.1852    1.4623 O   0  0  0  0  0  0  0  0  0  0  0  0
   -2.7614    1.0040    0.7736 O   0  0  0  0  0  0  0  0  0  0  0  0
   -2.9782   -0.5032   -0.7977 H   0  0  0  0  0  0  0  0  0  0  0  0
   -2.7043   -2.0706   -0.0880 H   0  0  0  0  0  0  0  0  0  0  0  0
   -0.7021   -1.4777    0.7877 H   0  0  0  0  0  0  0  0  0  0  0  0
   -0.6071    0.2628   -1.7348 H   0  0  0  0  0  0  0  0  0  0  0  0
    0.0332   -1.3841   -1.5979 H   0  0  0  0  0  0  0  0  0  0  0  0
    0.9213    2.2913   -0.5109 H   0  0  0  0  0  0  0  0  0  0  0  0
    4.2112   -0.1757    0.6593 H   0  0  0  0  0  0  0  0  0  0  0  0
    2.2513   -1.6850   -0.1670 H   0  0  0  0  0  0  0  0  0  0  0  0
   -2.9933    2.0035    0.8363 H   0  0  0  0  0  0  0  0  0  0  0  0
  1  2  1  0
  2  3  1  0
  3  4  1  0
  4  5  2  0
  5  6  1  0
  6  7  2  0
  7  8  1  0
  2  9  1  0
  9 10  2  0
  9 11  1  0
  8  4  1  0
  1 12  1  0
  1 13  1  0
  2 14  1  1
  3 15  1  0
  3 16  1  0
  5 17  1  0
  7 18  1  0
  8 19  1  0
 11 20  1  0
M  END
$$$$

     RDKit          3D

 20 20  0  0  0  0  0  0  0  0999 V2000
   -2.2896   -1.2454    0.4815 N   0  0  0  0  0  0  0  0  0  0  0  0
   -1.2186   -0.3193    0.4644 C   0  0  1  0  0  0  0  0  0  0  0  0
    0.0197   -1.0333   -0.0256 C   0  0  0  0  0  0  0  0  0  0  0  0
    1.2090   -0.1836   -0.0916 C   0  0  0  0  0  0  0  0  0  0  0  0
    1.5928    0.5510   -1.1822 C   0  0  0  0  0  0  0  0  0  0  0  0
    2.7265    1.1822   -0.8301 N   0  0  0  0  0  0  0  0  0  0  0  0
    3.0308    0.8478    0.4348 C   0  0  0  0  0  0  0  0  0  0  0  0
    2.0963    0.0051    0.8934 N   0  0  0  0  0  0  0  0  0  0  0  0
   -1.5447    0.8857   -0.3127 C   0  0  0  0  0  0  0  0  0  0  0  0
   -0.7404    1.8356   -0.4561 O   0  0  0  0  0  0  0  0  0  0  0  0
   -2.7867    0.9855   -0.9141 O   0  0  0  0  0  0  0  0  0  0  0  0
   -2.8721   -1.2933    1.2994 H   0  0  0  0  0  0  0  0  0  0  0  0
   -2.2808   -2.0012   -0.1814 H   0  0  0  0  0  0  0  0  0  0  0  0
   -0.9967    0.0007    1.5142 H   0  0  0  0  0  0  0  0  0  0  0  0
   -0.1659   -1.5761   -0.9791 H   0  0  0  0  0  0  0  0  0  0  0  0
    0.2149   -1.8494    0.7296 H   0  0  0  0  0  0  0  0  0  0  0  0
    1.1139    0.6424   -2.1627 H   0  0  0  0  0  0  0  0  0  0  0  0
    3.8886    1.2073    0.9757 H   0  0  0  0  0  0  0  0  0  0  0  0
    2.0520   -0.4319    1.8371 H   0  0  0  0  0  0  0  0  0  0  0  0
   -3.0490    1.7901   -1.4945 H   0  0  0  0  0  0  0  0  0  0  0  0
  1  2  1  0
  2  3  1  0
  3  4  1  0
  4  5  2  0
  5  6  1  0
  6  7  2  0
  7  8  1  0
  2  9  1  0
  9 10  2  0
  9 11  1  0
  8  4  1  0
  1 12  1  0
  1 13  1  0
  2 14  1  1
  3 15  1  0
  3 16  1  0
  5 17  1  0
  7 18  1  0
  8 19  1  0
 11 20  1  0
M  END
$$$$

     RDKit          3D

 20 20  0  0  0  0  0  0  0  0999 V2000
   -2.5020   -1.1968    0.6178 N   0  0  0  0  0  0  0  0  0  0  0  0
   -1.3939   -0.2380    0.5522 C   0  0  1  0  0  0  0  0  0  0  0  0
   -0.1382   -0.9750    0.1571 C   0  0  0  0  0  0  0  0  0  0  0  0
    1.0688   -0.1324    0.1140 C   0  0  0  0  0  0  0  0  0  0  0  0
    1.2882    1.1398    0.5636 C   0  0  0  0  0  0  0  0  0  0  0  0
    2.5502    1.4719    0.2589 N   0  0  0  0  0  0  0  0  0  0  0  0
    3.1456    0.4523   -0.3704 C   0  0  0  0  0  0  0  0  0  0  0  0
    2.2467   -0.5195   -0.4573 N   0  0  0  0  0  0  0  0  0  0  0  0
   -1.7753    0.7210   -0.5454 C   0  0  0  0  0  0  0  0  0  0  0  0
   -2.9158    0.6124   -1.0795 O   0  0  0  0  0  0  0  0  0  0  0  0
   -0.9640    1.7223   -1.0211 O   0  0  0  0  0  0  0  0  0  0  0  0
   -2.7897   -1.4597   -0.3364 H   0  0  0  0  0  0  0  0  0  0  0  0
   -2.2112   -1.9754    1.2235 H   0  0  0  0  0  0  0  0  0  0  0  0
   -1.2922    0.2766    1.5122 H   0  0  0  0  0  0  0  0  0  0  0  0
   -0.2425   -1.4408   -0.8461 H   0  0  0  0  0  0  0  0  0  0  0  0
    0.0602   -1.7960    0.8848 H   0  0  0  0  0  0  0  0  0  0  0  0
    0.5896    1.7788    1.0924 H   0  0  0  0  0  0  0  0  0  0  0  0
    4.1729    0.4374   -0.7360 H   0  0  0  0  0  0  0  0  0  0  0  0
    2.3946   -1.4453   -0.8910 H   0  0  0  0  0  0  0  0  0  0  0  0
   -1.2919    2.5663   -1.4734 H   0  0  0  0  0  0  0  0  0  0  0  0
  1  2  1  0
  2  3  1  0
  3  4  1  0
  4  5  2  0
  5  6  1  0
  6  7  2  0
  7  8  1  0
  2  9  1  0
  9 10  2  0
  9 11  1  0
  8  4  1  0
  1 12  1  0
  1 13  1  0
  2 14  1  1
  3 15  1  0
  3 16  1  0
  5 17  1  0
  7 18  1  0
  8 19  1  0
 11 20  1  0
M  END
$$$$

     RDKit          3D

 20 20  0  0  0  0  0  0  0  0999 V2000
   -2.3156    1.2774   -0.5118 N   0  0  0  0  0  0  0  0  0  0  0  0
   -1.1926    0.3634   -0.6055 C   0  0  1  0  0  0  0  0  0  0  0  0
   -0.0797    0.9495    0.2354 C   0  0  0  0  0  0  0  0  0  0  0  0
    1.1387    0.1358    0.2451 C   0  0  0  0  0  0  0  0  0  0  0  0
    1.4950   -0.8799    1.1067 C   0  0  0  0  0  0  0  0  0  0  0  0
    2.7048   -1.3789    0.7749 N   0  0  0  0  0  0  0  0  0  0  0  0
    3.1133   -0.6783   -0.2966 C   0  0  0  0  0  0  0  0  0  0  0  0
    2.1767    0.2329   -0.6193 N   0  0  0  0  0  0  0  0  0  0  0  0
   -1.6414   -0.9548   -0.1006 C   0  0  0  0  0  0  0  0  0  0  0  0
   -0.8542   -1.9427   -0.0719 O   0  0  0  0  0  0  0  0  0  0  0  0
   -2.9246   -1.1500    0.3527 O   0  0  0  0  0  0  0  0  0  0  0  0
   -2.3301    1.6589    0.4587 H   0  0  0  0  0  0  0  0  0  0  0  0
   -2.1178    2.0705   -1.1605 H   0  0  0  0  0  0  0  0  0  0  0  0
   -0.9050    0.2818   -1.6729 H   0  0  0  0  0  0  0  0  0  0  0  0
    0.1024    1.9743   -0.1558 H   0  0  0  0  0  0  0  0  0  0  0  0
   -0.5119    1.1007    1.2596 H   0  0  0  0  0  0  0  0  0  0  0  0
    0.8867   -1.2240    1.9306 H   0  0  0  0  0  0  0  0  0  0  0  0
    4.0605   -0.8491   -0.7990 H   0  0  0  0  0  0  0  0  0  0  0  0
    2.2873    0.8886   -1.4239 H   0  0  0  0  0  0  0  0  0  0  0  0
   -3.0924   -1.8758    1.0542 H   0  0  0  0  0  0  0  0  0  0  0  0
  1  2  1  0
  2  3  1  0
  3  4  1  0
  4  5  2  0
  5  6  1  0
  6  7  2  0
  7  8  1  0
  2  9  1  0
  9 10  2  0
  9 11  1  0
  8  4  1  0
  1 12  1  0
  1 13  1  0
  2 14  1  6
  3 15  1  0
  3 16  1  0
  5 17  1  0
  7 18  1  0
  8 19  1  0
 11 20  1  0
M  END
$$$$

     RDKit          3D

 20 20  0  0  0  0  0  0  0  0999 V2000
   -0.7595    1.7074   -0.3492 N   0  0  0  0  0  0  0  0  0  0  0  0
   -1.0881    0.3181   -0.2474 C   0  0  1  0  0  0  0  0  0  0  0  0
   -0.2462   -0.4111    0.7766 C   0  0  0  0  0  0  0  0  0  0  0  0
    1.1679   -0.2793    0.3537 C   0  0  0  0  0  0  0  0  0  0  0  0
    2.0552    0.7221    0.7018 C   0  0  0  0  0  0  0  0  0  0  0  0
    3.2065    0.4182    0.0829 N   0  0  0  0  0  0  0  0  0  0  0  0
    3.0539   -0.7211   -0.6227 C   0  0  0  0  0  0  0  0  0  0  0  0
    1.7928   -1.1345   -0.4432 N   0  0  0  0  0  0  0  0  0  0  0  0
   -2.5190    0.0680    0.0426 C   0  0  0  0  0  0  0  0  0  0  0  0
   -3.3345    1.0051    0.1792 O   0  0  0  0  0  0  0  0  0  0  0  0
   -2.9221   -1.2540    0.1574 O   0  0  0  0  0  0  0  0  0  0  0  0
   -1.5440    2.3461   -0.1760 H   0  0  0  0  0  0  0  0  0  0  0  0
   -0.2993    1.9100   -1.2646 H   0  0  0  0  0  0  0  0  0  0  0  0
   -0.8795   -0.1938   -1.2297 H   0  0  0  0  0  0  0  0  0  0  0  0
   -0.3523    0.0873    1.7590 H   0  0  0  0  0  0  0  0  0  0  0  0
   -0.5286   -1.4697    0.7847 H   0  0  0  0  0  0  0  0  0  0  0  0
    1.8343    1.5800    1.3545 H   0  0  0  0  0  0  0  0  0  0  0  0
    3.8450   -1.1697   -1.2081 H   0  0  0  0  0  0  0  0  0  0  0  0
    1.4001   -2.0018   -0.8804 H   0  0  0  0  0  0  0  0  0  0  0  0
   -3.8826   -1.5272    0.2289 H   0  0  0  0  0  0  0  0  0  0  0  0
  1  2  1  0
  2  3  1  0
  3  4  1  0
  4  5  2  0
  5  6  1  0
  6  7  2  0
  7  8  1  0
  2  9  1  0
  9 10  2  0
  9 11  1  0
  8  4  1  0
  1 12  1  0
  1 13  1  0
  2 14  1  6
  3 15  1  0
  3 16  1  0
  5 17  1  0
  7 18  1  0
  8 19  1  0
 11 20  1  0
M  END
$$$$

     RDKit          3D

 20 20  0  0  0  0  0  0  0  0999 V2000
    0.7999   -1.5563   -0.1773 N   0  0  0  0  0  0  0  0  0  0  0  0
    1.0900   -0.1829   -0.4432 C   0  0  1  0  0  0  0  0  0  0  0  0
    0.2254    0.6652    0.4655 C   0  0  0  0  0  0  0  0  0  0  0  0
   -1.2061    0.3853    0.1944 C   0  0  0  0  0  0  0  0  0  0  0  0
   -1.9835    1.0524   -0.7249 C   0  0  0  0  0  0  0  0  0  0  0  0
   -3.2100    0.4780   -0.6419 N   0  0  0  0  0  0  0  0  0  0  0  0
   -3.1653   -0.4853    0.2827 C   0  0  0  0  0  0  0  0  0  0  0  0
   -1.9153   -0.5641    0.8242 N   0  0  0  0  0  0  0  0  0  0  0  0
    2.5093    0.1542   -0.1967 C   0  0  0  0  0  0  0  0  0  0  0  0
    3.3035   -0.7304    0.2014 O   0  0  0  0  0  0  0  0  0  0  0  0
    2.9609    1.4407   -0.4041 O   0  0  0  0  0  0  0  0  0  0  0  0
    1.1759   -2.1701   -0.9150 H   0  0  0  0  0  0  0  0  0  0  0  0
    1.0104   -1.8497    0.7892 H   0  0  0  0  0  0  0  0  0  0  0  0
    0.8138    0.0620   -1.4767 H   0  0  0  0  0  0  0  0  0  0  0  0
    0.4504    1.7397    0.2874 H   0  0  0  0  0  0  0  0  0  0  0  0
    0.4645    0.4331    1.5136 H   0  0  0  0  0  0  0  0  0  0  0  0
   -1.6646    1.8653   -1.3719 H   0  0  0  0  0  0  0  0  0  0  0  0
   -3.9929   -1.1183    0.5700 H   0  0  0  0  0  0  0  0  0  0  0  0
   -1.5800   -1.2183    1.5659 H   0  0  0  0  0  0  0  0  0  0  0  0
    3.9136    1.5995   -0.7549 H   0  0  0  0  0  0  0  0  0  0  0  0
  1  2  1  0
  2  3  1  0
  3  4  1  0
  4  5  2  0
  5  6  1  0
  6  7  2  0
  7  8  1  0
  2  9  1  0
  9 10  2  0
  9 11  1  0
  8  4  1  0
  1 12  1  0
  1 13  1  0
  2 14  1  6
  3 15  1  0
  3 16  1  0
  5 17  1  0
  7 18  1  0
  8 19  1  0
 11 20  1  0
M  END
$$$$

     RDKit          3D

 20 20  0  0  0  0  0  0  0  0999 V2000
   -0.7717   -0.8057    1.4252 N   0  0  0  0  0  0  0  0  0  0  0  0
   -1.1101    0.1494    0.3897 C   0  0  1  0  0  0  0  0  0  0  0  0
   -0.2651   -0.2187   -0.8368 C   0  0  0  0  0  0  0  0  0  0  0  0
    1.1767   -0.1181   -0.4323 C   0  0  0  0  0  0  0  0  0  0  0  0
    1.9734   -1.1114    0.1011 C   0  0  0  0  0  0  0  0  0  0  0  0
    3.1975   -0.5953    0.3173 N   0  0  0  0  0  0  0  0  0  0  0  0
    3.2053    0.6938   -0.0612 C   0  0  0  0  0  0  0  0  0  0  0  0
    1.9678    0.9656   -0.5141 N   0  0  0  0  0  0  0  0  0  0  0  0
   -2.5459    0.1178    0.0305 C   0  0  0  0  0  0  0  0  0  0  0  0
   -3.3722   -0.6594    0.5739 O   0  0  0  0  0  0  0  0  0  0  0  0
   -2.9911    0.9785   -0.9410 O   0  0  0  0  0  0  0  0  0  0  0  0
   -1.1275   -1.7516    1.1801 H   0  0  0  0  0  0  0  0  0  0  0  0
   -0.9873   -0.4929    2.3736 H   0  0  0  0  0  0  0  0  0  0  0  0
   -0.8019    1.1451    0.7686 H   0  0  0  0  0  0  0  0  0  0  0  0
   -0.5094    0.4257   -1.6878 H   0  0  0  0  0  0  0  0  0  0  0  0
   -0.4295   -1.2740   -1.1219 H   0  0  0  0  0  0  0  0  0  0  0  0
    1.6303   -2.1341    0.2998 H   0  0  0  0  0  0  0  0  0  0  0  0
    4.0330    1.4165   -0.0253 H   0  0  0  0  0  0  0  0  0  0  0  0
    1.6639    1.9116   -0.8851 H   0  0  0  0  0  0  0  0  0  0  0  0
   -3.9362    1.3571   -0.9542 H   0  0  0  0  0  0  0  0  0  0  0  0
  1  2  1  0
  2  3  1  0
  3  4  1  0
  4  5  2  0
  5  6  1  0
  6  7  2  0
  7  8  1  0
  2  9  1  0
  9 10  2  0
  9 11  1  0
  8  4  1  0
  1 12  1  0
  1 13  1  0
  2 14  1  1
  3 15  1  0
  3 16  1  0
  5 17  1  0
  7 18  1  0
  8 19  1  0
 11 20  1  0
M  END
$$$$

     RDKit          3D

 20 20  0  0  0  0  0  0  0  0999 V2000
   -2.4362   -1.3763    0.2044 N   0  0  0  0  0  0  0  0  0  0  0  0
   -1.3207   -0.4790    0.3761 C   0  0  1  0  0  0  0  0  0  0  0  0
   -0.1490   -1.0513   -0.3853 C   0  0  0  0  0  0  0  0  0  0  0  0
    1.0717   -0.2098   -0.2845 C   0  0  0  0  0  0  0  0  0  0  0  0
    1.4870    0.8169   -1.0911 C   0  0  0  0  0  0  0  0  0  0  0  0
    2.6641    1.2893   -0.6088 N   0  0  0  0  0  0  0  0  0  0  0  0
    2.9927    0.5780    0.4833 C   0  0  0  0  0  0  0  0  0  0  0  0
    2.0170   -0.3288    0.6686 N   0  0  0  0  0  0  0  0  0  0  0  0
   -1.6510    0.8904   -0.0289 C   0  0  0  0  0  0  0  0  0  0  0  0
   -2.8163    1.1124   -0.4694 O   0  0  0  0  0  0  0  0  0  0  0  0
   -0.7633    1.9329    0.0469 O   0  0  0  0  0  0  0  0  0  0  0  0
   -2.4222   -2.1825    0.8423 H   0  0  0  0  0  0  0  0  0  0  0  0
   -3.3541   -0.8729    0.2243 H   0  0  0  0  0  0  0  0  0  0  0  0
   -1.0049   -0.4474    1.4574 H   0  0  0  0  0  0  0  0  0  0  0  0
    0.1052   -2.0535    0.0001 H   0  0  0  0  0  0  0  0  0  0  0  0
   -0.4235   -1.1842   -1.4518 H   0  0  0  0  0  0  0  0  0  0  0  0
    0.9562    1.1790   -1.9616 H   0  0  0  0  0  0  0  0  0  0  0  0
    3.8745    0.7087    1.0979 H   0  0  0  0  0  0  0  0  0  0  0  0
    1.9681   -1.0439    1.4383 H   0  0  0  0  0  0  0  0  0  0  0  0
   -0.7953    2.7222   -0.5585 H   0  0  0  0  0  0  0  0  0  0  0  0
  1  2  1  0
  2  3  1  0
  3  4  1  0
  4  5  2  0
  5  6  1  0
  6  7  2  0
  7  8  1  0
  2  9  1  0
  9 10  2  0
  9 11  1  0
  8  4  1  0
  1 12  1  0
  1 13  1  0
  2 14  1  1
  3 15  1  0
  3 16  1  0
  5 17  1  0
  7 18  1  0
  8 19  1  0
 11 20  1  0
M  END
$$$$

     RDKit          3D

 20 20  0  0  0  0  0  0  0  0999 V2000
    2.4378    0.5430   -0.9410 N   0  0  0  0  0  0  0  0  0  0  0  0
    1.2222    0.5072   -0.1310 C   0  0  1  0  0  0  0  0  0  0  0  0
    0.1526   -0.0727   -1.0249 C   0  0  0  0  0  0  0  0  0  0  0  0
   -1.1271   -0.1579   -0.3151 C   0  0  0  0  0  0  0  0  0  0  0  0
   -1.5993   -1.2330    0.4307 C   0  0  0  0  0  0  0  0  0  0  0  0
   -2.7929   -0.8631    0.8845 N   0  0  0  0  0  0  0  0  0  0  0  0
   -3.0888    0.3790    0.4637 C   0  0  0  0  0  0  0  0  0  0  0  0
   -2.0540    0.8030   -0.2750 N   0  0  0  0  0  0  0  0  0  0  0  0
    1.4646   -0.2861    1.0892 C   0  0  0  0  0  0  0  0  0  0  0  0
    0.5354   -0.4060    1.9408 O   0  0  0  0  0  0  0  0  0  0  0  0
    2.7001   -0.8762    1.2680 O   0  0  0  0  0  0  0  0  0  0  0  0
    2.3993   -0.1207   -1.7241 H   0  0  0  0  0  0  0  0  0  0  0  0
    2.5804    1.4935   -1.3092 H   0  0  0  0  0  0  0  0  0  0  0  0
    0.8969    1.5452    0.1125 H   0  0  0  0  0  0  0  0  0  0  0  0
    0.4465   -1.0997   -1.3284 H   0  0  0  0  0  0  0  0  0  0  0  0
    0.0372    0.5935   -1.8986 H   0  0  0  0  0  0  0  0  0  0  0  0
   -1.0788   -2.1809    0.5974 H   0  0  0  0  0  0  0  0  0  0  0  0
   -4.0176    0.9083    0.7048 H   0  0  0  0  0  0  0  0  0  0  0  0
   -2.0451    1.7616   -0.7241 H   0  0  0  0  0  0  0  0  0  0  0  0
    2.9306   -1.2381    2.1798 H   0  0  0  0  0  0  0  0  0  0  0  0
  1  2  1  0
  2  3  1  0
  3  4  1  0
  4  5  2  0
  5  6  1  0
  6  7  2  0
  7  8  1  0
  2  9  1  0
  9 10  2  0
  9 11  1  0
  8  4  1  0
  1 12  1  0
  1 13  1  0
  2 14  1  1
  3 15  1  0
  3 16  1  0
  5 17  1  0
  7 18  1  0
  8 19  1  0
 11 20  1  0
M  END
$$$$

     RDKit          3D

 20 20  0  0  0  0  0  0  0  0999 V2000
   -1.8738   -1.9529   -0.8130 N   0  0  0  0  0  0  0  0  0  0  0  0
   -1.2668   -0.7948   -0.0857 C   0  0  1  0  0  0  0  0  0  0  0  0
    0.1835   -0.8918   -0.3766 C   0  0  0  0  0  0  0  0  0  0  0  0
    1.0703    0.0821    0.2469 C   0  0  0  0  0  0  0  0  0  0  0  0
    0.9172    1.0282    1.2305 C   0  0  0  0  0  0  0  0  0  0  0  0
    2.0930    1.7032    1.4056 N   0  0  0  0  0  0  0  0  0  0  0  0
    2.9580    1.1705    0.5341 C   0  0  0  0  0  0  0  0  0  0  0  0
    2.3698    0.2124   -0.1569 N   0  0  0  0  0  0  0  0  0  0  0  0
   -1.9316    0.3842   -0.6356 C   0  0  0  0  0  0  0  0  0  0  0  0
   -2.8413    0.2736   -1.4868 O   0  0  0  0  0  0  0  0  0  0  0  0
   -1.5774    1.6426   -0.2357 O   0  0  0  0  0  0  0  0  0  0  0  0
   -2.8634   -1.7348   -1.0153 H   0  0  0  0  0  0  0  0  0  0  0  0
   -1.3858   -2.0930   -1.7208 H   0  0  0  0  0  0  0  0  0  0  0  0
   -1.4841   -0.9306    0.9649 H   0  0  0  0  0  0  0  0  0  0  0  0
    0.3970   -0.9737   -1.4683 H   0  0  0  0  0  0  0  0  0  0  0  0
    0.5093   -1.9009    0.0281 H   0  0  0  0  0  0  0  0  0  0  0  0
    0.0176    1.2038    1.7947 H   0  0  0  0  0  0  0  0  0  0  0  0
    4.0091    1.4638    0.3895 H   0  0  0  0  0  0  0  0  0  0  0  0
    2.8509   -0.3605   -0.9102 H   0  0  0  0  0  0  0  0  0  0  0  0
   -2.1516    2.4686   -0.3021 H   0  0  0  0  0  0  0  0  0  0  0  0
  1  2  1  0
  2  3  1  0
  3  4  1  0
  4  5  2  0
  5  6  1  0
  6  7  2  0
  7  8  1  0
  2  9  1  0
  9 10  2  0
  9 11  1  0
  8  4  1  0
  1 12  1  0
  1 13  1  0
  2 14  1  1
  3 15  1  0
  3 16  1  0
  5 17  1  0
  7 18  1  0
  8 19  1  0
 11 20  1  0
M  END
$$$$

     RDKit          3D

 20 20  0  0  0  0  0  0  0  0999 V2000
   -1.0109   -1.4951    0.5596 N   0  0  0  0  0  0  0  0  0  0  0  0
   -1.1702   -0.0848    0.3509 C   0  0  1  0  0  0  0  0  0  0  0  0
   -0.2505    0.4905   -0.6829 C   0  0  0  0  0  0  0  0  0  0  0  0
    1.1813    0.3146   -0.3565 C   0  0  0  0  0  0  0  0  0  0  0  0
    2.0018    1.1850    0.3693 C   0  0  0  0  0  0  0  0  0  0  0  0
    3.2400    0.6827    0.4571 N   0  0  0  0  0  0  0  0  0  0  0  0
    3.2392   -0.4904   -0.1941 C   0  0  0  0  0  0  0  0  0  0  0  0
    2.0079   -0.7097   -0.6802 N   0  0  0  0  0  0  0  0  0  0  0  0
   -2.5665    0.1591   -0.0972 C   0  0  0  0  0  0  0  0  0  0  0  0
   -3.4013   -0.7904   -0.2402 O   0  0  0  0  0  0  0  0  0  0  0  0
   -3.0284    1.4353   -0.3816 O   0  0  0  0  0  0  0  0  0  0  0  0
   -1.7186   -2.0130   -0.0049 H   0  0  0  0  0  0  0  0  0  0  0  0
   -0.0791   -1.8681    0.2942 H   0  0  0  0  0  0  0  0  0  0  0  0
   -1.0484    0.5009    1.2991 H   0  0  0  0  0  0  0  0  0  0  0  0
   -0.4419    1.5771   -0.7353 H   0  0  0  0  0  0  0  0  0  0  0  0
   -0.5103    0.0396   -1.6668 H   0  0  0  0  0  0  0  0  0  0  0  0
    1.7083    2.1233    0.8031 H   0  0  0  0  0  0  0  0  0  0  0  0
    4.1027   -1.1375   -0.2975 H   0  0  0  0  0  0  0  0  0  0  0  0
    1.7541   -1.5490   -1.2211 H   0  0  0  0  0  0  0  0  0  0  0  0
   -4.0089    1.6297   -0.2068 H   0  0  0  0  0  0  0  0  0  0  0  0
  1  2  1  0
  2  3  1  0
  3  4  1  0
  4  5  2  0
  5  6  1  0
  6  7  2  0
  7  8  1  0
  2  9  1  0
  9 10  2  0
  9 11  1  0
  8  4  1  0
  1 12  1  0
  1 13  1  0
  2 14  1  1
  3 15  1  0
  3 16  1  0
  5 17  1  0
  7 18  1  0
  8 19  1  0
 11 20  1  0
M  END
$$$$

     RDKit          3D

 20 20  0  0  0  0  0  0  0  0999 V2000
   -2.5916   -0.6859   -0.2293 N   0  0  0  0  0  0  0  0  0  0  0  0
   -1.2631   -0.1568    0.1038 C   0  0  1  0  0  0  0  0  0  0  0  0
   -0.2733   -1.0126   -0.6039 C   0  0  0  0  0  0  0  0  0  0  0  0
    1.0961   -0.5614   -0.3369 C   0  0  0  0  0  0  0  0  0  0  0  0
    1.8768   -0.9921    0.7398 C   0  0  0  0  0  0  0  0  0  0  0  0
    3.0599   -0.3687    0.6372 N   0  0  0  0  0  0  0  0  0  0  0  0
    3.0432    0.4165   -0.4406 C   0  0  0  0  0  0  0  0  0  0  0  0
    1.8548    0.3015   -1.0325 N   0  0  0  0  0  0  0  0  0  0  0  0
   -1.1214    1.2430   -0.3059 C   0  0  0  0  0  0  0  0  0  0  0  0
   -0.1155    1.9403   -0.0870 O   0  0  0  0  0  0  0  0  0  0  0  0
   -2.2055    1.8237   -0.9926 O   0  0  0  0  0  0  0  0  0  0  0  0
   -2.7333   -1.5879    0.2793 H   0  0  0  0  0  0  0  0  0  0  0  0
   -3.3245   -0.0027    0.0117 H   0  0  0  0  0  0  0  0  0  0  0  0
   -1.1290   -0.2311    1.2011 H   0  0  0  0  0  0  0  0  0  0  0  0
   -0.4528   -1.0379   -1.6916 H   0  0  0  0  0  0  0  0  0  0  0  0
   -0.3950   -2.0538   -0.2415 H   0  0  0  0  0  0  0  0  0  0  0  0
    1.5712   -1.6829    1.4861 H   0  0  0  0  0  0  0  0  0  0  0  0
    3.9005    1.0317   -0.7370 H   0  0  0  0  0  0  0  0  0  0  0  0
    1.5613    0.7943   -1.8947 H   0  0  0  0  0  0  0  0  0  0  0  0
   -2.3588    2.8228   -1.0013 H   0  0  0  0  0  0  0  0  0  0  0  0
  1  2  1  0
  2  3  1  0
  3  4  1  0
  4  5  2  0
  5  6  1  0
  6  7  2  0
  7  8  1  0
  2  9  1  0
  9 10  2  0
  9 11  1  0
  8  4  1  0
  1 12  1  0
  1 13  1  0
  2 14  1  1
  3 15  1  0
  3 16  1  0
  5 17  1  0
  7 18  1  0
  8 19  1  0
 11 20  1  0
M  END
$$$$

     RDKit          3D

 20 20  0  0  0  0  0  0  0  0999 V2000
   -0.9714   -0.8475    1.3693 N   0  0  0  0  0  0  0  0  0  0  0  0
   -1.1150    0.2055    0.4333 C   0  0  1  0  0  0  0  0  0  0  0  0
   -0.2202    0.1009   -0.7703 C   0  0  0  0  0  0  0  0  0  0  0  0
    1.2159    0.0969   -0.4357 C   0  0  0  0  0  0  0  0  0  0  0  0
    2.1894    0.0074   -1.4095 C   0  0  0  0  0  0  0  0  0  0  0  0
    3.3797    0.0274   -0.8101 N   0  0  0  0  0  0  0  0  0  0  0  0
    3.2061    0.1260    0.5073 C   0  0  0  0  0  0  0  0  0  0  0  0
    1.8595    0.1683    0.7262 N   0  0  0  0  0  0  0  0  0  0  0  0
   -2.5066    0.2024   -0.0823 C   0  0  0  0  0  0  0  0  0  0  0  0
   -3.3061   -0.6666    0.3482 O   0  0  0  0  0  0  0  0  0  0  0  0
   -2.9578    1.1223   -1.0214 O   0  0  0  0  0  0  0  0  0  0  0  0
   -1.6777   -1.6065    1.3007 H   0  0  0  0  0  0  0  0  0  0  0  0
   -0.7433   -0.5653    2.3411 H   0  0  0  0  0  0  0  0  0  0  0  0
   -0.9438    1.1836    0.9464 H   0  0  0  0  0  0  0  0  0  0  0  0
   -0.4147    0.9949   -1.4000 H   0  0  0  0  0  0  0  0  0  0  0  0
   -0.5064   -0.7794   -1.3451 H   0  0  0  0  0  0  0  0  0  0  0  0
    2.0656   -0.0681   -2.4876 H   0  0  0  0  0  0  0  0  0  0  0  0
    4.0026    0.1626    1.2290 H   0  0  0  0  0  0  0  0  0  0  0  0
    1.4056    0.2436    1.6432 H   0  0  0  0  0  0  0  0  0  0  0  0
   -3.9614    1.2416   -1.0827 H   0  0  0  0  0  0  0  0  0  0  0  0
  1  2  1  0
  2  3  1  0
  3  4  1  0
  4  5  2  0
  5  6  1  0
  6  7  2  0
  7  8  1  0
  2  9  1  0
  9 10  2  0
  9 11  1  0
  8  4  1  0
  1 12  1  0
  1 13  1  0
  2 14  1  1
  3 15  1  0
  3 16  1  0
  5 17  1  0
  7 18  1  0
  8 19  1  0
 11 20  1  0
M  END
$$$$

     RDKit          3D

 20 20  0  0  0  0  0  0  0  0999 V2000
   -1.0325   -1.1617    0.8909 N   0  0  0  0  0  0  0  0  0  0  0  0
   -1.1300    0.1467    0.3194 C   0  0  1  0  0  0  0  0  0  0  0  0
   -0.1462    0.2779   -0.8524 C   0  0  0  0  0  0  0  0  0  0  0  0
    1.2326    0.0560   -0.3487 C   0  0  0  0  0  0  0  0  0  0  0  0
    2.0725    1.0384    0.1294 C   0  0  0  0  0  0  0  0  0  0  0  0
    3.2441    0.4398    0.4945 N   0  0  0  0  0  0  0  0  0  0  0  0
    3.1412   -0.8794    0.2522 C   0  0  0  0  0  0  0  0  0  0  0  0
    1.8966   -1.0972   -0.2666 N   0  0  0  0  0  0  0  0  0  0  0  0
   -2.4909    0.5221   -0.0800 C   0  0  0  0  0  0  0  0  0  0  0  0
   -3.4303   -0.2882    0.0972 O   0  0  0  0  0  0  0  0  0  0  0  0
   -2.7534    1.7413   -0.6427 O   0  0  0  0  0  0  0  0  0  0  0  0
   -1.4993   -1.9007    0.3549 H   0  0  0  0  0  0  0  0  0  0  0  0
   -1.3425   -1.1462    1.8971 H   0  0  0  0  0  0  0  0  0  0  0  0
   -0.7602    0.8740    1.0903 H   0  0  0  0  0  0  0  0  0  0  0  0
   -0.2498    1.2589   -1.3368 H   0  0  0  0  0  0  0  0  0  0  0  0
   -0.3870   -0.5293   -1.5845 H   0  0  0  0  0  0  0  0  0  0  0  0
    1.8405    2.1065    0.2026 H   0  0  0  0  0  0  0  0  0  0  0  0
    3.9063   -1.6326    0.4351 H   0  0  0  0  0  0  0  0  0  0  0  0
    1.5384   -2.0348   -0.5499 H   0  0  0  0  0  0  0  0  0  0  0  0
   -3.6501    2.2085   -0.5020 H   0  0  0  0  0  0  0  0  0  0  0  0
  1  2  1  0
  2  3  1  0
  3  4  1  0
  4  5  2  0
  5  6  1  0
  6  7  2  0
  7  8  1  0
  2  9  1  0
  9 10  2  0
  9 11  1  0
  8  4  1  0
  1 12  1  0
  1 13  1  0
  2 14  1  1
  3 15  1  0
  3 16  1  0
  5 17  1  0
  7 18  1  0
  8 19  1  0
 11 20  1  0
M  END
$$$$

     RDKit          3D

 20 20  0  0  0  0  0  0  0  0999 V2000
   -2.3804   -0.9528    1.1661 N   0  0  0  0  0  0  0  0  0  0  0  0
   -1.3805   -0.1413    0.4550 C   0  0  1  0  0  0  0  0  0  0  0  0
   -0.0369   -0.7226    0.8141 C   0  0  0  0  0  0  0  0  0  0  0  0
    1.0802    0.0029    0.1620 C   0  0  0  0  0  0  0  0  0  0  0  0
    1.6677   -0.2446   -1.0667 C   0  0  0  0  0  0  0  0  0  0  0  0
    2.6403    0.6848   -1.2155 N   0  0  0  0  0  0  0  0  0  0  0  0
    2.6682    1.4810   -0.1363 C   0  0  0  0  0  0  0  0  0  0  0  0
    1.7124    1.0658    0.7112 N   0  0  0  0  0  0  0  0  0  0  0  0
   -1.6838   -0.1793   -0.9745 C   0  0  0  0  0  0  0  0  0  0  0  0
   -2.6588   -0.8208   -1.4791 O   0  0  0  0  0  0  0  0  0  0  0  0
   -0.8696    0.5234   -1.8676 O   0  0  0  0  0  0  0  0  0  0  0  0
   -2.1477   -0.8499    2.1821 H   0  0  0  0  0  0  0  0  0  0  0  0
   -2.2796   -1.9114    0.8061 H   0  0  0  0  0  0  0  0  0  0  0  0
   -1.4298    0.8860    0.8221 H   0  0  0  0  0  0  0  0  0  0  0  0
    0.0242   -1.8035    0.5696 H   0  0  0  0  0  0  0  0  0  0  0  0
    0.0765   -0.6326    1.9136 H   0  0  0  0  0  0  0  0  0  0  0  0
    1.4009   -1.0236   -1.7636 H   0  0  0  0  0  0  0  0  0  0  0  0
    3.3412    2.3088    0.0209 H   0  0  0  0  0  0  0  0  0  0  0  0
    1.4771    1.4728    1.6370 H   0  0  0  0  0  0  0  0  0  0  0  0
   -1.2218    0.8567   -2.7566 H   0  0  0  0  0  0  0  0  0  0  0  0
  1  2  1  0
  2  3  1  0
  3  4  1  0
  4  5  2  0
  5  6  1  0
  6  7  2  0
  7  8  1  0
  2  9  1  0
  9 10  2  0
  9 11  1  0
  8  4  1  0
  1 12  1  0
  1 13  1  0
  2 14  1  1
  3 15  1  0
  3 16  1  0
  5 17  1  0
  7 18  1  0
  8 19  1  0
 11 20  1  0
M  END
$$$$

     RDKit          3D

 20 20  0  0  0  0  0  0  0  0999 V2000
   -2.4356   -1.3483   -0.0641 N   0  0  0  0  0  0  0  0  0  0  0  0
   -1.2846   -0.5893    0.3790 C   0  0  1  0  0  0  0  0  0  0  0  0
   -0.2184   -0.7834   -0.6985 C   0  0  0  0  0  0  0  0  0  0  0  0
    1.0242   -0.0626   -0.3845 C   0  0  0  0  0  0  0  0  0  0  0  0
    1.4130    1.2109   -0.7085 C   0  0  0  0  0  0  0  0  0  0  0  0
    2.6305    1.4405   -0.2072 N   0  0  0  0  0  0  0  0  0  0  0  0
    3.0099    0.3186    0.4301 C   0  0  0  0  0  0  0  0  0  0  0  0
    2.0393   -0.5937    0.3246 N   0  0  0  0  0  0  0  0  0  0  0  0
   -1.7005    0.8329    0.4759 C   0  0  0  0  0  0  0  0  0  0  0  0
   -2.8858    1.2126    0.1835 O   0  0  0  0  0  0  0  0  0  0  0  0
   -0.8408    1.8360    0.8863 O   0  0  0  0  0  0  0  0  0  0  0  0
   -2.4396   -2.3222    0.2534 H   0  0  0  0  0  0  0  0  0  0  0  0
   -2.5214   -1.2257   -1.0926 H   0  0  0  0  0  0  0  0  0  0  0  0
   -0.9525   -0.9961    1.3412 H   0  0  0  0  0  0  0  0  0  0  0  0
   -0.5706   -0.4427   -1.6780 H   0  0  0  0  0  0  0  0  0  0  0  0
   -0.0003   -1.8665   -0.7801 H   0  0  0  0  0  0  0  0  0  0  0  0
    0.8555    1.9251   -1.2692 H   0  0  0  0  0  0  0  0  0  0  0  0
    3.9621    0.2263    0.9316 H   0  0  0  0  0  0  0  0  0  0  0  0
    2.0616   -1.5633    0.7263 H   0  0  0  0  0  0  0  0  0  0  0  0
   -1.1459    2.7908    0.9509 H   0  0  0  0  0  0  0  0  0  0  0  0
  1  2  1  0
  2  3  1  0
  3  4  1  0
  4  5  2  0
  5  6  1  0
  6  7  2  0
  7  8  1  0
  2  9  1  0
  9 10  2  0
  9 11  1  0
  8  4  1  0
  1 12  1  0
  1 13  1  0
  2 14  1  1
  3 15  1  0
  3 16  1  0
  5 17  1  0
  7 18  1  0
  8 19  1  0
 11 20  1  0
M  END
$$$$

     RDKit          3D

 20 20  0  0  0  0  0  0  0  0999 V2000
   -1.1530   -0.9206   -1.6094 N   0  0  0  0  0  0  0  0  0  0  0  0
   -1.4234   -0.6188   -0.2324 C   0  0  1  0  0  0  0  0  0  0  0  0
   -0.2783   -1.0039    0.6783 C   0  0  0  0  0  0  0  0  0  0  0  0
    0.9707   -0.3114    0.3477 C   0  0  0  0  0  0  0  0  0  0  0  0
    1.9222   -0.7762   -0.5348 C   0  0  0  0  0  0  0  0  0  0  0  0
    2.9073    0.1315   -0.5659 N   0  0  0  0  0  0  0  0  0  0  0  0
    2.5909    1.1437    0.2726 C   0  0  0  0  0  0  0  0  0  0  0  0
    1.4028    0.8764    0.8359 N   0  0  0  0  0  0  0  0  0  0  0  0
   -1.8245    0.7825   -0.0787 C   0  0  0  0  0  0  0  0  0  0  0  0
   -1.8900    1.5317   -1.0850 O   0  0  0  0  0  0  0  0  0  0  0  0
   -2.1447    1.3457    1.1450 O   0  0  0  0  0  0  0  0  0  0  0  0
   -0.5850   -1.8080   -1.6263 H   0  0  0  0  0  0  0  0  0  0  0  0
   -0.6414   -0.1550   -2.1030 H   0  0  0  0  0  0  0  0  0  0  0  0
   -2.2922   -1.2591    0.0803 H   0  0  0  0  0  0  0  0  0  0  0  0
   -0.5877   -0.7790    1.7147 H   0  0  0  0  0  0  0  0  0  0  0  0
   -0.1801   -2.1136    0.6205 H   0  0  0  0  0  0  0  0  0  0  0  0
    1.9305   -1.6881   -1.1195 H   0  0  0  0  0  0  0  0  0  0  0  0
    3.1751    2.0353    0.4787 H   0  0  0  0  0  0  0  0  0  0  0  0
    0.9343    1.5041    1.5238 H   0  0  0  0  0  0  0  0  0  0  0  0
   -2.8336    2.0828    1.2575 H   0  0  0  0  0  0  0  0  0  0  0  0
  1  2  1  0
  2  3  1  0
  3  4  1  0
  4  5  2  0
  5  6  1  0
  6  7  2  0
  7  8  1  0
  2  9  1  0
  9 10  2  0
  9 11  1  0
  8  4  1  0
  1 12  1  0
  1 13  1  0
  2 14  1  1
  3 15  1  0
  3 16  1  0
  5 17  1  0
  7 18  1  0
  8 19  1  0
 11 20  1  0
M  END
$$$$

     RDKit          3D

 20 20  0  0  0  0  0  0  0  0999 V2000
   -0.6728    1.2899   -0.7220 N   0  0  0  0  0  0  0  0  0  0  0  0
   -1.1815    0.0401   -0.2459 C   0  0  1  0  0  0  0  0  0  0  0  0
   -0.3602   -0.4184    0.9444 C   0  0  0  0  0  0  0  0  0  0  0  0
    1.0523   -0.5844    0.5368 C   0  0  0  0  0  0  0  0  0  0  0  0
    1.5736   -1.7633    0.0490 C   0  0  0  0  0  0  0  0  0  0  0  0
    2.8733   -1.5098   -0.2035 N   0  0  0  0  0  0  0  0  0  0  0  0
    3.1458   -0.2434    0.1098 C   0  0  0  0  0  0  0  0  0  0  0  0
    2.0390    0.3347    0.5645 N   0  0  0  0  0  0  0  0  0  0  0  0
   -2.5655    0.2142    0.2160 C   0  0  0  0  0  0  0  0  0  0  0  0
   -3.1967   -0.7570    0.6715 O   0  0  0  0  0  0  0  0  0  0  0  0
   -3.1693    1.4438    0.1485 O   0  0  0  0  0  0  0  0  0  0  0  0
    0.3274    1.1849   -0.9735 H   0  0  0  0  0  0  0  0  0  0  0  0
   -0.8284    2.0011    0.0292 H   0  0  0  0  0  0  0  0  0  0  0  0
   -1.0792   -0.7270   -1.0377 H   0  0  0  0  0  0  0  0  0  0  0  0
   -0.4235    0.3112    1.7725 H   0  0  0  0  0  0  0  0  0  0  0  0
   -0.7425   -1.3801    1.3425 H   0  0  0  0  0  0  0  0  0  0  0  0
    1.0771   -2.7227   -0.1150 H   0  0  0  0  0  0  0  0  0  0  0  0
    4.1034    0.2853    0.0270 H   0  0  0  0  0  0  0  0  0  0  0  0
    1.9356    1.3339    0.8923 H   0  0  0  0  0  0  0  0  0  0  0  0
   -3.9079    1.6668    0.8249 H   0  0  0  0  0  0  0  0  0  0  0  0
  1  2  1  0
  2  3  1  0
  3  4  1  0
  4  5  2  0
  5  6  1  0
  6  7  2  0
  7  8  1  0
  2  9  1  0
  9 10  2  0
  9 11  1  0
  8  4  1  0
  1 12  1  0
  1 13  1  0
  2 14  1  6
  3 15  1  0
  3 16  1  0
  5 17  1  0
  7 18  1  0
  8 19  1  0
 11 20  1  0
M  END
$$$$

     RDKit          3D

 20 20  0  0  0  0  0  0  0  0999 V2000
   -2.3709   -1.2024    0.0207 N   0  0  0  0  0  0  0  0  0  0  0  0
   -1.2520   -0.3304    0.3315 C   0  0  1  0  0  0  0  0  0  0  0  0
   -0.0219   -0.9429   -0.2712 C   0  0  0  0  0  0  0  0  0  0  0  0
    1.2027   -0.1880   -0.0508 C   0  0  0  0  0  0  0  0  0  0  0  0
    1.7158    0.7946   -0.8539 C   0  0  0  0  0  0  0  0  0  0  0  0
    2.8519    1.2251   -0.2866 N   0  0  0  0  0  0  0  0  0  0  0  0
    3.0411    0.5373    0.8286 C   0  0  0  0  0  0  0  0  0  0  0  0
    2.0382   -0.3287    0.9809 N   0  0  0  0  0  0  0  0  0  0  0  0
   -1.5489    1.0190   -0.1126 C   0  0  0  0  0  0  0  0  0  0  0  0
   -0.7237    1.9430    0.0528 O   0  0  0  0  0  0  0  0  0  0  0  0
   -2.7441    1.3315   -0.7295 O   0  0  0  0  0  0  0  0  0  0  0  0
   -2.8507   -1.5655    0.8583 H   0  0  0  0  0  0  0  0  0  0  0  0
   -2.1160   -1.9491   -0.6599 H   0  0  0  0  0  0  0  0  0  0  0  0
   -1.1511   -0.3306    1.4362 H   0  0  0  0  0  0  0  0  0  0  0  0
   -0.1842   -1.0537   -1.3820 H   0  0  0  0  0  0  0  0  0  0  0  0
    0.0347   -1.9969    0.1095 H   0  0  0  0  0  0  0  0  0  0  0  0
    1.2759    1.1676   -1.7988 H   0  0  0  0  0  0  0  0  0  0  0  0
    3.8767    0.6348    1.5401 H   0  0  0  0  0  0  0  0  0  0  0  0
    1.9574   -0.9977    1.7985 H   0  0  0  0  0  0  0  0  0  0  0  0
   -3.0310    2.2331   -1.0362 H   0  0  0  0  0  0  0  0  0  0  0  0
  1  2  1  0
  2  3  1  0
  3  4  1  0
  4  5  2  0
  5  6  1  0
  6  7  2  0
  7  8  1  0
  2  9  1  0
  9 10  2  0
  9 11  1  0
  8  4  1  0
  1 12  1  0
  1 13  1  0
  2 14  1  1
  3 15  1  0
  3 16  1  0
  5 17  1  0
  7 18  1  0
  8 19  1  0
 11 20  1  0
M  END
$$$$

     RDKit          3D

 20 20  0  0  0  0  0  0  0  0999 V2000
   -2.2263   -1.6442   -0.6882 N   0  0  0  0  0  0  0  0  0  0  0  0
   -1.1875   -0.8477   -0.0358 C   0  0  1  0  0  0  0  0  0  0  0  0
   -0.0578   -0.5633   -0.9945 C   0  0  0  0  0  0  0  0  0  0  0  0
    1.0342    0.2419   -0.3988 C   0  0  0  0  0  0  0  0  0  0  0  0
    1.1879    1.6146   -0.3816 C   0  0  0  0  0  0  0  0  0  0  0  0
    2.3296    1.8922    0.2725 N   0  0  0  0  0  0  0  0  0  0  0  0
    2.9170    0.7541    0.6770 C   0  0  0  0  0  0  0  0  0  0  0  0
    2.1152   -0.2320    0.2596 N   0  0  0  0  0  0  0  0  0  0  0  0
   -1.7372    0.3970    0.5153 C   0  0  0  0  0  0  0  0  0  0  0  0
   -2.9737    0.6402    0.3063 O   0  0  0  0  0  0  0  0  0  0  0  0
   -0.9921    1.3050    1.2400 O   0  0  0  0  0  0  0  0  0  0  0  0
   -1.8045   -2.5573   -0.9487 H   0  0  0  0  0  0  0  0  0  0  0  0
   -2.9515   -1.8131    0.0349 H   0  0  0  0  0  0  0  0  0  0  0  0
   -0.7539   -1.4525    0.8029 H   0  0  0  0  0  0  0  0  0  0  0  0
    0.3521   -1.5123   -1.4007 H   0  0  0  0  0  0  0  0  0  0  0  0
   -0.4309   -0.0011   -1.8904 H   0  0  0  0  0  0  0  0  0  0  0  0
    0.5126    2.3244   -0.8159 H   0  0  0  0  0  0  0  0  0  0  0  0
    3.8487    0.7042    1.2255 H   0  0  0  0  0  0  0  0  0  0  0  0
    2.2691   -1.2487    0.4037 H   0  0  0  0  0  0  0  0  0  0  0  0
   -1.4509    1.9986    1.8171 H   0  0  0  0  0  0  0  0  0  0  0  0
  1  2  1  0
  2  3  1  0
  3  4  1  0
  4  5  2  0
  5  6  1  0
  6  7  2  0
  7  8  1  0
  2  9  1  0
  9 10  2  0
  9 11  1  0
  8  4  1  0
  1 12  1  0
  1 13  1  0
  2 14  1  1
  3 15  1  0
  3 16  1  0
  5 17  1  0
  7 18  1  0
  8 19  1  0
 11 20  1  0
M  END
$$$$

     RDKit          3D

 20 20  0  0  0  0  0  0  0  0999 V2000
   -2.4890   -1.2905    0.4768 N   0  0  0  0  0  0  0  0  0  0  0  0
   -1.2857   -0.4706    0.5993 C   0  0  1  0  0  0  0  0  0  0  0  0
   -0.2115   -1.0708   -0.2844 C   0  0  0  0  0  0  0  0  0  0  0  0
    1.0602   -0.3082   -0.2335 C   0  0  0  0  0  0  0  0  0  0  0  0
    2.1212   -0.4860    0.6321 C   0  0  0  0  0  0  0  0  0  0  0  0
    3.0839    0.3982    0.3550 N   0  0  0  0  0  0  0  0  0  0  0  0
    2.6548    1.1383   -0.6740 C   0  0  0  0  0  0  0  0  0  0  0  0
    1.4280    0.7117   -1.0326 N   0  0  0  0  0  0  0  0  0  0  0  0
   -1.6614    0.9083    0.1958 C   0  0  0  0  0  0  0  0  0  0  0  0
   -2.8364    1.2121   -0.1896 O   0  0  0  0  0  0  0  0  0  0  0  0
   -0.7495    1.9551    0.2149 O   0  0  0  0  0  0  0  0  0  0  0  0
   -2.2030   -2.2670    0.2465 H   0  0  0  0  0  0  0  0  0  0  0  0
   -3.0698   -1.2866    1.3239 H   0  0  0  0  0  0  0  0  0  0  0  0
   -0.9119   -0.4249    1.6358 H   0  0  0  0  0  0  0  0  0  0  0  0
   -0.5704   -1.1236   -1.3396 H   0  0  0  0  0  0  0  0  0  0  0  0
   -0.0207   -2.1000    0.0821 H   0  0  0  0  0  0  0  0  0  0  0  0
    2.2047   -1.2213    1.4332 H   0  0  0  0  0  0  0  0  0  0  0  0
    3.2504    1.9408   -1.1051 H   0  0  0  0  0  0  0  0  0  0  0  0
    0.9007    1.1503   -1.8206 H   0  0  0  0  0  0  0  0  0  0  0  0
   -0.6944    2.6346   -0.5160 H   0  0  0  0  0  0  0  0  0  0  0  0
  1  2  1  0
  2  3  1  0
  3  4  1  0
  4  5  2  0
  5  6  1  0
  6  7  2  0
  7  8  1  0
  2  9  1  0
  9 10  2  0
  9 11  1  0
  8  4  1  0
  1 12  1  0
  1 13  1  0
  2 14  1  1
  3 15  1  0
  3 16  1  0
  5 17  1  0
  7 18  1  0
  8 19  1  0
 11 20  1  0
M  END
$$$$

     RDKit          3D

 20 20  0  0  0  0  0  0  0  0999 V2000
   -1.0836   -1.3435    0.7721 N   0  0  0  0  0  0  0  0  0  0  0  0
   -1.1250    0.0597    0.4372 C   0  0  1  0  0  0  0  0  0  0  0  0
   -0.1614    0.3682   -0.7180 C   0  0  0  0  0  0  0  0  0  0  0  0
    1.2249    0.0313   -0.3722 C   0  0  0  0  0  0  0  0  0  0  0  0
    1.8449   -1.1837   -0.5796 C   0  0  0  0  0  0  0  0  0  0  0  0
    3.1151   -1.1076   -0.1320 N   0  0  0  0  0  0  0  0  0  0  0  0
    3.2781    0.1382    0.3458 C   0  0  0  0  0  0  0  0  0  0  0  0
    2.1326    0.8348    0.2024 N   0  0  0  0  0  0  0  0  0  0  0  0
   -2.4798    0.3838   -0.0413 C   0  0  0  0  0  0  0  0  0  0  0  0
   -3.3413   -0.5177   -0.0906 O   0  0  0  0  0  0  0  0  0  0  0  0
   -2.8189    1.6628   -0.4368 O   0  0  0  0  0  0  0  0  0  0  0  0
   -1.1859   -1.5181    1.7958 H   0  0  0  0  0  0  0  0  0  0  0  0
   -1.6824   -1.9210    0.1734 H   0  0  0  0  0  0  0  0  0  0  0  0
   -0.8336    0.6955    1.2990 H   0  0  0  0  0  0  0  0  0  0  0  0
   -0.2108    1.4458   -0.9732 H   0  0  0  0  0  0  0  0  0  0  0  0
   -0.5595   -0.1965   -1.5883 H   0  0  0  0  0  0  0  0  0  0  0  0
    1.4199   -2.0897   -1.0288 H   0  0  0  0  0  0  0  0  0  0  0  0
    4.2089    0.4846    0.7727 H   0  0  0  0  0  0  0  0  0  0  0  0
    2.0412    1.8298    0.5105 H   0  0  0  0  0  0  0  0  0  0  0  0
   -3.7832    1.9433   -0.3481 H   0  0  0  0  0  0  0  0  0  0  0  0
  1  2  1  0
  2  3  1  0
  3  4  1  0
  4  5  2  0
  5  6  1  0
  6  7  2  0
  7  8  1  0
  2  9  1  0
  9 10  2  0
  9 11  1  0
  8  4  1  0
  1 12  1  0
  1 13  1  0
  2 14  1  1
  3 15  1  0
  3 16  1  0
  5 17  1  0
  7 18  1  0
  8 19  1  0
 11 20  1  0
M  END
$$$$

     RDKit          3D

 20 20  0  0  0  0  0  0  0  0999 V2000
   -2.5478   -0.8767    0.1102 N   0  0  0  0  0  0  0  0  0  0  0  0
   -1.2247   -0.4932    0.5911 C   0  0  1  0  0  0  0  0  0  0  0  0
   -0.2731   -0.6305   -0.5702 C   0  0  0  0  0  0  0  0  0  0  0  0
    1.1131   -0.2775   -0.2450 C   0  0  0  0  0  0  0  0  0  0  0  0
    2.0741   -1.1496    0.2260 C   0  0  0  0  0  0  0  0  0  0  0  0
    3.1979   -0.4556    0.3995 N   0  0  0  0  0  0  0  0  0  0  0  0
    2.9453    0.8134    0.0467 C   0  0  0  0  0  0  0  0  0  0  0  0
    1.6676    0.9427   -0.3527 N   0  0  0  0  0  0  0  0  0  0  0  0
   -1.3036    0.8878    1.1145 C   0  0  0  0  0  0  0  0  0  0  0  0
   -0.2658    1.4111    1.5813 O   0  0  0  0  0  0  0  0  0  0  0  0
   -2.4591    1.6477    1.1229 O   0  0  0  0  0  0  0  0  0  0  0  0
   -2.5016   -1.3171   -0.8300 H   0  0  0  0  0  0  0  0  0  0  0  0
   -3.0395   -1.4930    0.7931 H   0  0  0  0  0  0  0  0  0  0  0  0
   -0.9368   -1.1865    1.3926 H   0  0  0  0  0  0  0  0  0  0  0  0
   -0.3048   -1.6960   -0.8832 H   0  0  0  0  0  0  0  0  0  0  0  0
   -0.5885   -0.0389   -1.4411 H   0  0  0  0  0  0  0  0  0  0  0  0
    1.9728   -2.2191    0.4321 H   0  0  0  0  0  0  0  0  0  0  0  0
    3.6756    1.6187    0.0814 H   0  0  0  0  0  0  0  0  0  0  0  0
    1.2401    1.8487   -0.6765 H   0  0  0  0  0  0  0  0  0  0  0  0
   -2.4410    2.6634    0.9390 H   0  0  0  0  0  0  0  0  0  0  0  0
  1  2  1  0
  2  3  1  0
  3  4  1  0
  4  5  2  0
  5  6  1  0
  6  7  2  0
  7  8  1  0
  2  9  1  0
  9 10  2  0
  9 11  1  0
  8  4  1  0
  1 12  1  0
  1 13  1  0
  2 14  1  1
  3 15  1  0
  3 16  1  0
  5 17  1  0
  7 18  1  0
  8 19  1  0
 11 20  1  0
M  END
$$$$

     RDKit          3D

 20 20  0  0  0  0  0  0  0  0999 V2000
    0.8235   -1.6105   -0.7069 N   0  0  0  0  0  0  0  0  0  0  0  0
    1.1279   -0.2168   -0.6156 C   0  0  1  0  0  0  0  0  0  0  0  0
    0.2300    0.5115    0.3652 C   0  0  0  0  0  0  0  0  0  0  0  0
   -1.1875    0.4313    0.0107 C   0  0  0  0  0  0  0  0  0  0  0  0
   -1.8612    1.3290   -0.7911 C   0  0  0  0  0  0  0  0  0  0  0  0
   -3.1319    0.9450   -0.8978 N   0  0  0  0  0  0  0  0  0  0  0  0
   -3.2807   -0.1949   -0.1693 C   0  0  0  0  0  0  0  0  0  0  0  0
   -2.0832   -0.4972    0.3806 N   0  0  0  0  0  0  0  0  0  0  0  0
    2.5185   -0.0476   -0.1386 C   0  0  0  0  0  0  0  0  0  0  0  0
    3.2050   -1.0663    0.1076 O   0  0  0  0  0  0  0  0  0  0  0  0
    3.0252    1.2313    0.0233 O   0  0  0  0  0  0  0  0  0  0  0  0
    1.6320   -2.2019   -0.9766 H   0  0  0  0  0  0  0  0  0  0  0  0
    0.4361   -1.9978    0.2002 H   0  0  0  0  0  0  0  0  0  0  0  0
    1.0441    0.2368   -1.6415 H   0  0  0  0  0  0  0  0  0  0  0  0
    0.4513    0.1246    1.3727 H   0  0  0  0  0  0  0  0  0  0  0  0
    0.5742    1.5783    0.3600 H   0  0  0  0  0  0  0  0  0  0  0  0
   -1.4379    2.2232   -1.2742 H   0  0  0  0  0  0  0  0  0  0  0  0
   -4.1965   -0.7687   -0.0451 H   0  0  0  0  0  0  0  0  0  0  0  0
   -1.9293   -1.3438    0.9979 H   0  0  0  0  0  0  0  0  0  0  0  0
    4.0401    1.3343   -0.0236 H   0  0  0  0  0  0  0  0  0  0  0  0
  1  2  1  0
  2  3  1  0
  3  4  1  0
  4  5  2  0
  5  6  1  0
  6  7  2  0
  7  8  1  0
  2  9  1  0
  9 10  2  0
  9 11  1  0
  8  4  1  0
  1 12  1  0
  1 13  1  0
  2 14  1  6
  3 15  1  0
  3 16  1  0
  5 17  1  0
  7 18  1  0
  8 19  1  0
 11 20  1  0
M  END
$$$$

     RDKit          3D

 20 20  0  0  0  0  0  0  0  0999 V2000
   -2.3413   -0.8216    1.0296 N   0  0  0  0  0  0  0  0  0  0  0  0
   -1.0022   -0.1732    0.9307 C   0  0  1  0  0  0  0  0  0  0  0  0
   -0.3043   -0.8614   -0.1824 C   0  0  0  0  0  0  0  0  0  0  0  0
    1.0681   -0.4517   -0.4680 C   0  0  0  0  0  0  0  0  0  0  0  0
    1.7493   -0.8984   -1.5979 C   0  0  0  0  0  0  0  0  0  0  0  0
    2.9750   -0.3770   -1.5511 N   0  0  0  0  0  0  0  0  0  0  0  0
    3.1202    0.3777   -0.4573 C   0  0  0  0  0  0  0  0  0  0  0  0
    1.9518    0.3224    0.1925 N   0  0  0  0  0  0  0  0  0  0  0  0
   -1.3328    1.2506    0.5403 C   0  0  0  0  0  0  0  0  0  0  0  0
   -0.4114    2.0589    0.3387 O   0  0  0  0  0  0  0  0  0  0  0  0
   -2.6206    1.7162    0.3913 O   0  0  0  0  0  0  0  0  0  0  0  0
   -3.0027   -0.3693    0.3595 H   0  0  0  0  0  0  0  0  0  0  0  0
   -2.2583   -1.8245    0.6917 H   0  0  0  0  0  0  0  0  0  0  0  0
   -0.5347   -0.1948    1.9064 H   0  0  0  0  0  0  0  0  0  0  0  0
   -0.3923   -1.9730   -0.0238 H   0  0  0  0  0  0  0  0  0  0  0  0
   -0.9192   -0.6643   -1.1128 H   0  0  0  0  0  0  0  0  0  0  0  0
    1.3569   -1.5437   -2.3639 H   0  0  0  0  0  0  0  0  0  0  0  0
    4.0008    0.9134   -0.1710 H   0  0  0  0  0  0  0  0  0  0  0  0
    1.7764    0.8160    1.1085 H   0  0  0  0  0  0  0  0  0  0  0  0
   -2.8789    2.6978    0.4389 H   0  0  0  0  0  0  0  0  0  0  0  0
  1  2  1  0
  2  3  1  0
  3  4  1  0
  4  5  2  0
  5  6  1  0
  6  7  2  0
  7  8  1  0
  2  9  1  0
  9 10  2  0
  9 11  1  0
  8  4  1  0
  1 12  1  0
  1 13  1  0
  2 14  1  1
  3 15  1  0
  3 16  1  0
  5 17  1  0
  7 18  1  0
  8 19  1  0
 11 20  1  0
M  END
$$$$

     RDKit          3D

 20 20  0  0  0  0  0  0  0  0999 V2000
   -0.9960    1.1222    0.7214 N   0  0  0  0  0  0  0  0  0  0  0  0
   -1.1609    0.1068   -0.3130 C   0  0  1  0  0  0  0  0  0  0  0  0
   -0.0589   -0.9180   -0.1262 C   0  0  0  0  0  0  0  0  0  0  0  0
    1.2749   -0.2841   -0.2522 C   0  0  0  0  0  0  0  0  0  0  0  0
    2.0157   -0.1327   -1.4054 C   0  0  0  0  0  0  0  0  0  0  0  0
    3.1581    0.4867   -1.1003 N   0  0  0  0  0  0  0  0  0  0  0  0
    3.1257    0.7150    0.2183 C   0  0  0  0  0  0  0  0  0  0  0  0
    1.9870    0.2506    0.7400 N   0  0  0  0  0  0  0  0  0  0  0  0
   -2.4723   -0.5589   -0.1377 C   0  0  0  0  0  0  0  0  0  0  0  0
   -2.8055   -1.4700   -0.9344 O   0  0  0  0  0  0  0  0  0  0  0  0
   -3.3401   -0.2110    0.8720 O   0  0  0  0  0  0  0  0  0  0  0  0
   -1.8913    1.2884    1.2426 H   0  0  0  0  0  0  0  0  0  0  0  0
   -0.6795    2.0411    0.3200 H   0  0  0  0  0  0  0  0  0  0  0  0
   -1.1005    0.5403   -1.3245 H   0  0  0  0  0  0  0  0  0  0  0  0
   -0.1145   -1.3559    0.8872 H   0  0  0  0  0  0  0  0  0  0  0  0
   -0.1872   -1.7485   -0.8392 H   0  0  0  0  0  0  0  0  0  0  0  0
    1.6656   -0.4854   -2.3787 H   0  0  0  0  0  0  0  0  0  0  0  0
    3.9229    1.2125    0.7833 H   0  0  0  0  0  0  0  0  0  0  0  0
    1.6591    0.2744    1.7412 H   0  0  0  0  0  0  0  0  0  0  0  0
   -4.0023   -0.8735    1.2857 H   0  0  0  0  0  0  0  0  0  0  0  0
  1  2  1  0
  2  3  1  0
  3  4  1  0
  4  5  2  0
  5  6  1  0
  6  7  2  0
  7  8  1  0
  2  9  1  0
  9 10  2  0
  9 11  1  0
  8  4  1  0
  1 12  1  0
  1 13  1  0
  2 14  1  6
  3 15  1  0
  3 16  1  0
  5 17  1  0
  7 18  1  0
  8 19  1  0
 11 20  1  0
M  END
$$$$

     RDKit          3D

 20 20  0  0  0  0  0  0  0  0999 V2000
    1.7480   -2.2116    0.5595 N   0  0  0  0  0  0  0  0  0  0  0  0
    0.9955   -1.0684    0.0752 C   0  0  1  0  0  0  0  0  0  0  0  0
   -0.3261   -0.9338    0.7591 C   0  0  0  0  0  0  0  0  0  0  0  0
   -1.1001    0.2228    0.2826 C   0  0  0  0  0  0  0  0  0  0  0  0
   -1.9786    0.2189   -0.7916 C   0  0  0  0  0  0  0  0  0  0  0  0
   -2.5067    1.4414   -0.9230 N   0  0  0  0  0  0  0  0  0  0  0  0
   -2.0026    2.2230    0.0210 C   0  0  0  0  0  0  0  0  0  0  0  0
   -1.1376    1.4805    0.7655 N   0  0  0  0  0  0  0  0  0  0  0  0
    1.8334    0.1339    0.2405 C   0  0  0  0  0  0  0  0  0  0  0  0
    2.9605    0.0484    0.7975 O   0  0  0  0  0  0  0  0  0  0  0  0
    1.4090    1.3900   -0.2109 O   0  0  0  0  0  0  0  0  0  0  0  0
    1.3894   -2.5932    1.4510 H   0  0  0  0  0  0  0  0  0  0  0  0
    1.8866   -2.9352   -0.1840 H   0  0  0  0  0  0  0  0  0  0  0  0
    0.8301   -1.2353   -1.0294 H   0  0  0  0  0  0  0  0  0  0  0  0
   -0.1454   -0.8143    1.8481 H   0  0  0  0  0  0  0  0  0  0  0  0
   -0.9398   -1.8568    0.6546 H   0  0  0  0  0  0  0  0  0  0  0  0
   -2.1865   -0.6370   -1.4050 H   0  0  0  0  0  0  0  0  0  0  0  0
   -2.2208    3.2673    0.1932 H   0  0  0  0  0  0  0  0  0  0  0  0
   -0.5977    1.8161    1.5729 H   0  0  0  0  0  0  0  0  0  0  0  0
    2.0892    2.0433   -0.5850 H   0  0  0  0  0  0  0  0  0  0  0  0
  1  2  1  0
  2  3  1  0
  3  4  1  0
  4  5  2  0
  5  6  1  0
  6  7  2  0
  7  8  1  0
  2  9  1  0
  9 10  2  0
  9 11  1  0
  8  4  1  0
  1 12  1  0
  1 13  1  0
  2 14  1  6
  3 15  1  0
  3 16  1  0
  5 17  1  0
  7 18  1  0
  8 19  1  0
 11 20  1  0
M  END
$$$$

     RDKit          3D

 20 20  0  0  0  0  0  0  0  0999 V2000
    1.3456    1.5421   -0.6365 N   0  0  0  0  0  0  0  0  0  0  0  0
    1.2738    0.6804    0.4852 C   0  0  1  0  0  0  0  0  0  0  0  0
   -0.0821    0.4932    1.0707 C   0  0  0  0  0  0  0  0  0  0  0  0
   -1.0824   -0.0661    0.1714 C   0  0  0  0  0  0  0  0  0  0  0  0
   -1.0186   -0.4594   -1.1484 C   0  0  0  0  0  0  0  0  0  0  0  0
   -2.2320   -0.9230   -1.5462 N   0  0  0  0  0  0  0  0  0  0  0  0
   -3.0255   -0.8118   -0.4764 C   0  0  0  0  0  0  0  0  0  0  0  0
   -2.3537   -0.3049    0.5471 N   0  0  0  0  0  0  0  0  0  0  0  0
    1.8529   -0.6552    0.1898 C   0  0  0  0  0  0  0  0  0  0  0  0
    1.8302   -1.5108    1.1124 O   0  0  0  0  0  0  0  0  0  0  0  0
    2.4097   -1.0253   -1.0108 O   0  0  0  0  0  0  0  0  0  0  0  0
    1.3612    2.5605   -0.4247 H   0  0  0  0  0  0  0  0  0  0  0  0
    2.1432    1.3210   -1.2730 H   0  0  0  0  0  0  0  0  0  0  0  0
    1.9593    1.1187    1.2717 H   0  0  0  0  0  0  0  0  0  0  0  0
   -0.4497    1.5174    1.3775 H   0  0  0  0  0  0  0  0  0  0  0  0
   -0.0520   -0.0845    2.0165 H   0  0  0  0  0  0  0  0  0  0  0  0
   -0.1524   -0.4102   -1.7710 H   0  0  0  0  0  0  0  0  0  0  0  0
   -4.0680   -1.1027   -0.4733 H   0  0  0  0  0  0  0  0  0  0  0  0
   -2.7930   -0.1325    1.4950 H   0  0  0  0  0  0  0  0  0  0  0  0
    3.1336   -1.7470   -0.9771 H   0  0  0  0  0  0  0  0  0  0  0  0
  1  2  1  0
  2  3  1  0
  3  4  1  0
  4  5  2  0
  5  6  1  0
  6  7  2  0
  7  8  1  0
  2  9  1  0
  9 10  2  0
  9 11  1  0
  8  4  1  0
  1 12  1  0
  1 13  1  0
  2 14  1  1
  3 15  1  0
  3 16  1  0
  5 17  1  0
  7 18  1  0
  8 19  1  0
 11 20  1  0
M  END
$$$$

     RDKit          3D

 20 20  0  0  0  0  0  0  0  0999 V2000
    1.4041   -1.3656    0.6548 N   0  0  0  0  0  0  0  0  0  0  0  0
    1.4020   -0.4496   -0.4725 C   0  0  1  0  0  0  0  0  0  0  0  0
    0.0708   -0.4773   -1.1511 C   0  0  0  0  0  0  0  0  0  0  0  0
   -1.0688   -0.1011   -0.3341 C   0  0  0  0  0  0  0  0  0  0  0  0
   -1.8167   -0.9866    0.4179 C   0  0  0  0  0  0  0  0  0  0  0  0
   -2.7823   -0.2879    1.0378 N   0  0  0  0  0  0  0  0  0  0  0  0
   -2.6740    1.0064    0.7068 C   0  0  0  0  0  0  0  0  0  0  0  0
   -1.6277    1.1015   -0.1273 N   0  0  0  0  0  0  0  0  0  0  0  0
    1.9024    0.8618   -0.1104 C   0  0  0  0  0  0  0  0  0  0  0  0
    1.9753    1.7863   -0.9531 O   0  0  0  0  0  0  0  0  0  0  0  0
    2.3154    1.1258    1.1875 O   0  0  0  0  0  0  0  0  0  0  0  0
    1.5778   -2.3580    0.3427 H   0  0  0  0  0  0  0  0  0  0  0  0
    0.5200   -1.2518    1.1608 H   0  0  0  0  0  0  0  0  0  0  0  0
    2.1391   -0.8901   -1.2094 H   0  0  0  0  0  0  0  0  0  0  0  0
   -0.0767   -1.5173   -1.5151 H   0  0  0  0  0  0  0  0  0  0  0  0
    0.1606    0.1383   -2.0944 H   0  0  0  0  0  0  0  0  0  0  0  0
   -1.6693   -2.0552    0.5065 H   0  0  0  0  0  0  0  0  0  0  0  0
   -3.3178    1.8140    1.0551 H   0  0  0  0  0  0  0  0  0  0  0  0
   -1.2811    1.9721   -0.5635 H   0  0  0  0  0  0  0  0  0  0  0  0
    2.8471    1.9343    1.4612 H   0  0  0  0  0  0  0  0  0  0  0  0
  1  2  1  0
  2  3  1  0
  3  4  1  0
  4  5  2  0
  5  6  1  0
  6  7  2  0
  7  8  1  0
  2  9  1  0
  9 10  2  0
  9 11  1  0
  8  4  1  0
  1 12  1  0
  1 13  1  0
  2 14  1  6
  3 15  1  0
  3 16  1  0
  5 17  1  0
  7 18  1  0
  8 19  1  0
 11 20  1  0
M  END
$$$$

     RDKit          3D

 20 20  0  0  0  0  0  0  0  0999 V2000
   -2.4180   -0.9789   -1.0189 N   0  0  0  0  0  0  0  0  0  0  0  0
   -1.3737   -0.5366   -0.1211 C   0  0  1  0  0  0  0  0  0  0  0  0
   -0.0593   -0.7247   -0.8406 C   0  0  0  0  0  0  0  0  0  0  0  0
    1.1087   -0.3171   -0.0533 C   0  0  0  0  0  0  0  0  0  0  0  0
    1.8282   -1.1195    0.7934 C   0  0  0  0  0  0  0  0  0  0  0  0
    2.8077   -0.3582    1.3089 N   0  0  0  0  0  0  0  0  0  0  0  0
    2.6989    0.8780    0.7978 C   0  0  0  0  0  0  0  0  0  0  0  0
    1.6530    0.8948   -0.0379 N   0  0  0  0  0  0  0  0  0  0  0  0
   -1.6419    0.8765    0.2267 C   0  0  0  0  0  0  0  0  0  0  0  0
   -2.6344    1.4908   -0.2383 O   0  0  0  0  0  0  0  0  0  0  0  0
   -0.8153    1.6041    1.0846 O   0  0  0  0  0  0  0  0  0  0  0  0
   -2.2694   -1.9388   -1.3883 H   0  0  0  0  0  0  0  0  0  0  0  0
   -2.6106   -0.2617   -1.7313 H   0  0  0  0  0  0  0  0  0  0  0  0
   -1.3664   -1.1046    0.8323 H   0  0  0  0  0  0  0  0  0  0  0  0
   -0.1078   -0.1756   -1.8006 H   0  0  0  0  0  0  0  0  0  0  0  0
    0.0242   -1.8055   -1.0738 H   0  0  0  0  0  0  0  0  0  0  0  0
    1.6824   -2.1696    1.0385 H   0  0  0  0  0  0  0  0  0  0  0  0
    3.3569    1.7006    1.0372 H   0  0  0  0  0  0  0  0  0  0  0  0
    1.3824    1.7790   -0.5567 H   0  0  0  0  0  0  0  0  0  0  0  0
   -1.2457    2.2667    1.7413 H   0  0  0  0  0  0  0  0  0  0  0  0
  1  2  1  0
  2  3  1  0
  3  4  1  0
  4  5  2  0
  5  6  1  0
  6  7  2  0
  7  8  1  0
  2  9  1  0
  9 10  2  0
  9 11  1  0
  8  4  1  0
  1 12  1  0
  1 13  1  0
  2 14  1  1
  3 15  1  0
  3 16  1  0
  5 17  1  0
  7 18  1  0
  8 19  1  0
 11 20  1  0
M  END
$$$$

     RDKit          3D

 20 20  0  0  0  0  0  0  0  0999 V2000
    1.0250    1.1439   -1.1954 N   0  0  0  0  0  0  0  0  0  0  0  0
    1.2193    0.3806    0.0196 C   0  0  1  0  0  0  0  0  0  0  0  0
    0.2147   -0.7424    0.1320 C   0  0  0  0  0  0  0  0  0  0  0  0
   -1.1840   -0.2592    0.1510 C   0  0  0  0  0  0  0  0  0  0  0  0
   -1.9530   -0.0847   -0.9898 C   0  0  0  0  0  0  0  0  0  0  0  0
   -3.1646    0.3624   -0.6142 N   0  0  0  0  0  0  0  0  0  0  0  0
   -3.1472    0.4616    0.7137 C   0  0  0  0  0  0  0  0  0  0  0  0
   -1.9502    0.0872    1.1908 N   0  0  0  0  0  0  0  0  0  0  0  0
    2.5665   -0.2403   -0.0402 C   0  0  0  0  0  0  0  0  0  0  0  0
    3.3010   -0.0467   -1.0390 O   0  0  0  0  0  0  0  0  0  0  0  0
    3.0514   -1.0441    0.9917 O   0  0  0  0  0  0  0  0  0  0  0  0
    1.0514    0.4968   -2.0049 H   0  0  0  0  0  0  0  0  0  0  0  0
    0.1648    1.7142   -1.1343 H   0  0  0  0  0  0  0  0  0  0  0  0
    1.1622    1.0622    0.8888 H   0  0  0  0  0  0  0  0  0  0  0  0
    0.4120   -1.3623    1.0188 H   0  0  0  0  0  0  0  0  0  0  0  0
    0.3503   -1.3999   -0.7508 H   0  0  0  0  0  0  0  0  0  0  0  0
   -1.6177   -0.2809   -2.0079 H   0  0  0  0  0  0  0  0  0  0  0  0
   -3.9516    0.7921    1.3872 H   0  0  0  0  0  0  0  0  0  0  0  0
   -1.6090    0.0484    2.1840 H   0  0  0  0  0  0  0  0  0  0  0  0
    4.0589   -1.0890    1.0992 H   0  0  0  0  0  0  0  0  0  0  0  0
  1  2  1  0
  2  3  1  0
  3  4  1  0
  4  5  2  0
  5  6  1  0
  6  7  2  0
  7  8  1  0
  2  9  1  0
  9 10  2  0
  9 11  1  0
  8  4  1  0
  1 12  1  0
  1 13  1  0
  2 14  1  1
  3 15  1  0
  3 16  1  0
  5 17  1  0
  7 18  1  0
  8 19  1  0
 11 20  1  0
M  END
$$$$

     RDKit          3D

 20 20  0  0  0  0  0  0  0  0999 V2000
    0.7601   -1.4865    1.2474 N   0  0  0  0  0  0  0  0  0  0  0  0
    1.3287   -0.7796    0.1387 C   0  0  1  0  0  0  0  0  0  0  0  0
    0.2985   -0.7000   -0.9605 C   0  0  0  0  0  0  0  0  0  0  0  0
   -0.9289   -0.0042   -0.5679 C   0  0  0  0  0  0  0  0  0  0  0  0
   -2.0394   -0.6335   -0.0045 C   0  0  0  0  0  0  0  0  0  0  0  0
   -2.9659    0.2963    0.2249 N   0  0  0  0  0  0  0  0  0  0  0  0
   -2.4889    1.4912   -0.1699 C   0  0  0  0  0  0  0  0  0  0  0  0
   -1.2499    1.2891   -0.6489 N   0  0  0  0  0  0  0  0  0  0  0  0
    1.9196    0.5057    0.4941 C   0  0  0  0  0  0  0  0  0  0  0  0
    1.8931    0.8888    1.6852 O   0  0  0  0  0  0  0  0  0  0  0  0
    2.5182    1.3401   -0.4269 O   0  0  0  0  0  0  0  0  0  0  0  0
   -0.1365   -1.0119    1.5200 H   0  0  0  0  0  0  0  0  0  0  0  0
    0.6776   -2.4946    1.0899 H   0  0  0  0  0  0  0  0  0  0  0  0
    2.1613   -1.4244   -0.2708 H   0  0  0  0  0  0  0  0  0  0  0  0
    0.0567   -1.7429   -1.2557 H   0  0  0  0  0  0  0  0  0  0  0  0
    0.7276   -0.2238   -1.8847 H   0  0  0  0  0  0  0  0  0  0  0  0
   -2.1495   -1.6875    0.2153 H   0  0  0  0  0  0  0  0  0  0  0  0
   -3.0601    2.3988   -0.0837 H   0  0  0  0  0  0  0  0  0  0  0  0
   -0.6433    2.0569   -1.0268 H   0  0  0  0  0  0  0  0  0  0  0  0
    3.3211    1.9220   -0.2145 H   0  0  0  0  0  0  0  0  0  0  0  0
  1  2  1  0
  2  3  1  0
  3  4  1  0
  4  5  2  0
  5  6  1  0
  6  7  2  0
  7  8  1  0
  2  9  1  0
  9 10  2  0
  9 11  1  0
  8  4  1  0
  1 12  1  0
  1 13  1  0
  2 14  1  6
  3 15  1  0
  3 16  1  0
  5 17  1  0
  7 18  1  0
  8 19  1  0
 11 20  1  0
M  END
$$$$

     RDKit          3D

 20 20  0  0  0  0  0  0  0  0999 V2000
    2.4034   -1.1753   -0.1028 N   0  0  0  0  0  0  0  0  0  0  0  0
    1.2152   -0.3771   -0.4968 C   0  0  1  0  0  0  0  0  0  0  0  0
    0.0887   -0.8466    0.3720 C   0  0  0  0  0  0  0  0  0  0  0  0
   -1.2161   -0.2269    0.1262 C   0  0  0  0  0  0  0  0  0  0  0  0
   -2.3093   -0.4423    0.9738 C   0  0  0  0  0  0  0  0  0  0  0  0
   -3.3368    0.2213    0.4691 N   0  0  0  0  0  0  0  0  0  0  0  0
   -2.9743    0.8535   -0.6552 C   0  0  0  0  0  0  0  0  0  0  0  0
   -1.6543    0.5500   -0.8326 N   0  0  0  0  0  0  0  0  0  0  0  0
    1.5881    1.0314   -0.1362 C   0  0  0  0  0  0  0  0  0  0  0  0
    0.8359    2.0082   -0.2693 O   0  0  0  0  0  0  0  0  0  0  0  0
    2.8625    1.2644    0.3831 O   0  0  0  0  0  0  0  0  0  0  0  0
    2.5411   -1.1309    0.9209 H   0  0  0  0  0  0  0  0  0  0  0  0
    2.3643   -2.1182   -0.5004 H   0  0  0  0  0  0  0  0  0  0  0  0
    1.0460   -0.5146   -1.5689 H   0  0  0  0  0  0  0  0  0  0  0  0
    0.4102   -0.6871    1.4448 H   0  0  0  0  0  0  0  0  0  0  0  0
    0.0151   -1.9749    0.3101 H   0  0  0  0  0  0  0  0  0  0  0  0
   -2.3199   -1.0387    1.8752 H   0  0  0  0  0  0  0  0  0  0  0  0
   -3.5979    1.4703   -1.2831 H   0  0  0  0  0  0  0  0  0  0  0  0
   -1.1221    0.9052   -1.6489 H   0  0  0  0  0  0  0  0  0  0  0  0
    3.1602    2.2285    0.6190 H   0  0  0  0  0  0  0  0  0  0  0  0
  1  2  1  0
  2  3  1  0
  3  4  1  0
  4  5  2  0
  5  6  1  0
  6  7  2  0
  7  8  1  0
  2  9  1  0
  9 10  2  0
  9 11  1  0
  8  4  1  0
  1 12  1  0
  1 13  1  0
  2 14  1  6
  3 15  1  0
  3 16  1  0
  5 17  1  0
  7 18  1  0
  8 19  1  0
 11 20  1  0
M  END
$$$$

     RDKit          3D

 20 20  0  0  0  0  0  0  0  0999 V2000
   -0.9686   -0.4531   -1.9580 N   0  0  0  0  0  0  0  0  0  0  0  0
   -1.4900   -0.3962   -0.6167 C   0  0  1  0  0  0  0  0  0  0  0  0
   -0.5789   -1.1741    0.3085 C   0  0  0  0  0  0  0  0  0  0  0  0
    0.7860   -0.6246    0.3166 C   0  0  0  0  0  0  0  0  0  0  0  0
    1.8330   -0.9879   -0.5171 C   0  0  0  0  0  0  0  0  0  0  0  0
    2.9232   -0.2809   -0.2236 N   0  0  0  0  0  0  0  0  0  0  0  0
    2.5730    0.5300    0.7931 C   0  0  0  0  0  0  0  0  0  0  0  0
    1.2796    0.3293    1.1279 N   0  0  0  0  0  0  0  0  0  0  0  0
   -1.5737    1.0001   -0.1189 C   0  0  0  0  0  0  0  0  0  0  0  0
   -2.0113    1.2066    1.0412 O   0  0  0  0  0  0  0  0  0  0  0  0
   -1.1776    2.0660   -0.9139 O   0  0  0  0  0  0  0  0  0  0  0  0
   -1.7419   -0.6106   -2.6237 H   0  0  0  0  0  0  0  0  0  0  0  0
   -0.3793    0.3710   -2.1753 H   0  0  0  0  0  0  0  0  0  0  0  0
   -2.4939   -0.8898   -0.5910 H   0  0  0  0  0  0  0  0  0  0  0  0
   -0.5391   -2.2330   -0.0344 H   0  0  0  0  0  0  0  0  0  0  0  0
   -0.9574   -1.1993    1.3428 H   0  0  0  0  0  0  0  0  0  0  0  0
    1.7726   -1.7363   -1.2925 H   0  0  0  0  0  0  0  0  0  0  0  0
    3.2657    1.2337    1.2520 H   0  0  0  0  0  0  0  0  0  0  0  0
    0.7942    0.8413    1.8822 H   0  0  0  0  0  0  0  0  0  0  0  0
   -1.3156    3.0079   -0.5638 H   0  0  0  0  0  0  0  0  0  0  0  0
  1  2  1  0
  2  3  1  0
  3  4  1  0
  4  5  2  0
  5  6  1  0
  6  7  2  0
  7  8  1  0
  2  9  1  0
  9 10  2  0
  9 11  1  0
  8  4  1  0
  1 12  1  0
  1 13  1  0
  2 14  1  6
  3 15  1  0
  3 16  1  0
  5 17  1  0
  7 18  1  0
  8 19  1  0
 11 20  1  0
M  END
$$$$

     RDKit          3D

 20 20  0  0  0  0  0  0  0  0999 V2000
   -1.1801   -1.5643    0.1614 N   0  0  0  0  0  0  0  0  0  0  0  0
   -1.1364   -0.2526    0.7687 C   0  0  1  0  0  0  0  0  0  0  0  0
   -0.1308    0.6292    0.0989 C   0  0  0  0  0  0  0  0  0  0  0  0
    1.2495    0.0952    0.1587 C   0  0  0  0  0  0  0  0  0  0  0  0
    1.7449   -1.0501    0.7155 C   0  0  0  0  0  0  0  0  0  0  0  0
    3.0731   -1.0455    0.4821 N   0  0  0  0  0  0  0  0  0  0  0  0
    3.3988    0.0549   -0.1921 C   0  0  0  0  0  0  0  0  0  0  0  0
    2.2872    0.7544   -0.3915 N   0  0  0  0  0  0  0  0  0  0  0  0
   -2.4744    0.3719    0.5950 C   0  0  0  0  0  0  0  0  0  0  0  0
   -3.4054   -0.2095    0.0155 O   0  0  0  0  0  0  0  0  0  0  0  0
   -2.7434    1.6605    1.0851 O   0  0  0  0  0  0  0  0  0  0  0  0
   -1.7175   -2.2241    0.7699 H   0  0  0  0  0  0  0  0  0  0  0  0
   -1.6312   -1.4822   -0.7884 H   0  0  0  0  0  0  0  0  0  0  0  0
   -0.9419   -0.3983    1.8492 H   0  0  0  0  0  0  0  0  0  0  0  0
   -0.4029    0.7407   -0.9531 H   0  0  0  0  0  0  0  0  0  0  0  0
   -0.1321    1.6182    0.5976 H   0  0  0  0  0  0  0  0  0  0  0  0
    1.1475   -1.7851    1.2318 H   0  0  0  0  0  0  0  0  0  0  0  0
    4.3880    0.3363   -0.5219 H   0  0  0  0  0  0  0  0  0  0  0  0
    2.2708    1.6791   -0.9077 H   0  0  0  0  0  0  0  0  0  0  0  0
   -3.6637    2.0711    0.9456 H   0  0  0  0  0  0  0  0  0  0  0  0
  1  2  1  0
  2  3  1  0
  3  4  1  0
  4  5  2  0
  5  6  1  0
  6  7  2  0
  7  8  1  0
  2  9  1  0
  9 10  2  0
  9 11  1  0
  8  4  1  0
  1 12  1  0
  1 13  1  0
  2 14  1  1
  3 15  1  0
  3 16  1  0
  5 17  1  0
  7 18  1  0
  8 19  1  0
 11 20  1  0
M  END
$$$$

     RDKit          3D

 20 20  0  0  0  0  0  0  0  0999 V2000
   -1.1449   -0.6501    1.4618 N   0  0  0  0  0  0  0  0  0  0  0  0
   -1.1114    0.3763    0.4395 C   0  0  1  0  0  0  0  0  0  0  0  0
   -0.1746   -0.0070   -0.6871 C   0  0  0  0  0  0  0  0  0  0  0  0
    1.2039   -0.2031   -0.2349 C   0  0  0  0  0  0  0  0  0  0  0  0
    1.7680   -1.3825    0.2066 C   0  0  0  0  0  0  0  0  0  0  0  0
    3.0598   -1.1453    0.5321 N   0  0  0  0  0  0  0  0  0  0  0  0
    3.3225    0.1485    0.3077 C   0  0  0  0  0  0  0  0  0  0  0  0
    2.2099    0.7111   -0.1516 N   0  0  0  0  0  0  0  0  0  0  0  0
   -2.4872    0.6212   -0.0495 C   0  0  0  0  0  0  0  0  0  0  0  0
   -3.4409   -0.0345    0.4382 O   0  0  0  0  0  0  0  0  0  0  0  0
   -2.7976    1.5447   -1.0296 O   0  0  0  0  0  0  0  0  0  0  0  0
   -0.8634   -1.5709    1.0354 H   0  0  0  0  0  0  0  0  0  0  0  0
   -2.1299   -0.7802    1.7824 H   0  0  0  0  0  0  0  0  0  0  0  0
   -0.6806    1.2859    0.9157 H   0  0  0  0  0  0  0  0  0  0  0  0
   -0.5494   -0.9936   -1.0707 H   0  0  0  0  0  0  0  0  0  0  0  0
   -0.2802    0.6990   -1.5232 H   0  0  0  0  0  0  0  0  0  0  0  0
    1.2910   -2.3557    0.2930 H   0  0  0  0  0  0  0  0  0  0  0  0
    4.2968    0.6198    0.4850 H   0  0  0  0  0  0  0  0  0  0  0  0
    2.0715    1.7066   -0.4247 H   0  0  0  0  0  0  0  0  0  0  0  0
   -3.5634    1.4099   -1.7001 H   0  0  0  0  0  0  0  0  0  0  0  0
  1  2  1  0
  2  3  1  0
  3  4  1  0
  4  5  2  0
  5  6  1  0
  6  7  2  0
  7  8  1  0
  2  9  1  0
  9 10  2  0
  9 11  1  0
  8  4  1  0
  1 12  1  0
  1 13  1  0
  2 14  1  1
  3 15  1  0
  3 16  1  0
  5 17  1  0
  7 18  1  0
  8 19  1  0
 11 20  1  0
M  END
$$$$

     RDKit          3D

 20 20  0  0  0  0  0  0  0  0999 V2000
   -1.0743    1.6421    0.3905 N   0  0  0  0  0  0  0  0  0  0  0  0
   -1.3529    0.4155   -0.3237 C   0  0  1  0  0  0  0  0  0  0  0  0
   -0.2492    0.0235   -1.2557 C   0  0  0  0  0  0  0  0  0  0  0  0
    1.0407   -0.1979   -0.5827 C   0  0  0  0  0  0  0  0  0  0  0  0
    2.1892   -0.5660   -1.2515 C   0  0  0  0  0  0  0  0  0  0  0  0
    3.1803   -0.6855   -0.3597 N   0  0  0  0  0  0  0  0  0  0  0  0
    2.7134   -0.4092    0.8512 C   0  0  0  0  0  0  0  0  0  0  0  0
    1.3944   -0.1093    0.7080 N   0  0  0  0  0  0  0  0  0  0  0  0
   -1.7827   -0.6643    0.5818 C   0  0  0  0  0  0  0  0  0  0  0  0
   -2.0588   -1.7927    0.1036 O   0  0  0  0  0  0  0  0  0  0  0  0
   -1.8971   -0.4886    1.9515 O   0  0  0  0  0  0  0  0  0  0  0  0
   -1.9806    1.9276    0.8543 H   0  0  0  0  0  0  0  0  0  0  0  0
   -0.8905    2.3808   -0.3384 H   0  0  0  0  0  0  0  0  0  0  0  0
   -2.2464    0.6462   -0.9768 H   0  0  0  0  0  0  0  0  0  0  0  0
   -0.1535    0.7975   -2.0294 H   0  0  0  0  0  0  0  0  0  0  0  0
   -0.5390   -0.9200   -1.7507 H   0  0  0  0  0  0  0  0  0  0  0  0
    2.2900   -0.7364   -2.3333 H   0  0  0  0  0  0  0  0  0  0  0  0
    3.2504   -0.4134    1.7827 H   0  0  0  0  0  0  0  0  0  0  0  0
    0.7306    0.1527    1.4594 H   0  0  0  0  0  0  0  0  0  0  0  0
   -2.5641   -1.0026    2.5191 H   0  0  0  0  0  0  0  0  0  0  0  0
  1  2  1  0
  2  3  1  0
  3  4  1  0
  4  5  2  0
  5  6  1  0
  6  7  2  0
  7  8  1  0
  2  9  1  0
  9 10  2  0
  9 11  1  0
  8  4  1  0
  1 12  1  0
  1 13  1  0
  2 14  1  6
  3 15  1  0
  3 16  1  0
  5 17  1  0
  7 18  1  0
  8 19  1  0
 11 20  1  0
M  END
$$$$

     RDKit          3D

 20 20  0  0  0  0  0  0  0  0999 V2000
    1.0791    0.3295    1.3678 N   0  0  0  0  0  0  0  0  0  0  0  0
    1.0939   -0.3649    0.1198 C   0  0  1  0  0  0  0  0  0  0  0  0
    0.0711    0.1709   -0.8644 C   0  0  0  0  0  0  0  0  0  0  0  0
   -1.3023    0.0807   -0.3850 C   0  0  0  0  0  0  0  0  0  0  0  0
   -1.9610    1.0501    0.3357 C   0  0  0  0  0  0  0  0  0  0  0  0
   -3.2029    0.6028    0.5920 N   0  0  0  0  0  0  0  0  0  0  0  0
   -3.3471   -0.6112    0.0586 C   0  0  0  0  0  0  0  0  0  0  0  0
   -2.1621   -0.9258   -0.5452 N   0  0  0  0  0  0  0  0  0  0  0  0
    2.4186   -0.1959   -0.5155 C   0  0  0  0  0  0  0  0  0  0  0  0
    2.7152   -0.7002   -1.6243 O   0  0  0  0  0  0  0  0  0  0  0  0
    3.3711    0.5544    0.1484 O   0  0  0  0  0  0  0  0  0  0  0  0
    1.5104   -0.3153    2.0878 H   0  0  0  0  0  0  0  0  0  0  0  0
    1.7606    1.1374    1.3040 H   0  0  0  0  0  0  0  0  0  0  0  0
    0.8890   -1.4493    0.3076 H   0  0  0  0  0  0  0  0  0  0  0  0
    0.3994    1.2244   -1.0936 H   0  0  0  0  0  0  0  0  0  0  0  0
    0.2446   -0.3985   -1.8166 H   0  0  0  0  0  0  0  0  0  0  0  0
   -1.5938    2.0124    0.6622 H   0  0  0  0  0  0  0  0  0  0  0  0
   -4.2249   -1.2461    0.0853 H   0  0  0  0  0  0  0  0  0  0  0  0
   -1.9614   -1.8113   -1.0507 H   0  0  0  0  0  0  0  0  0  0  0  0
    4.2025    0.8560   -0.3438 H   0  0  0  0  0  0  0  0  0  0  0  0
  1  2  1  0
  2  3  1  0
  3  4  1  0
  4  5  2  0
  5  6  1  0
  6  7  2  0
  7  8  1  0
  2  9  1  0
  9 10  2  0
  9 11  1  0
  8  4  1  0
  1 12  1  0
  1 13  1  0
  2 14  1  1
  3 15  1  0
  3 16  1  0
  5 17  1  0
  7 18  1  0
  8 19  1  0
 11 20  1  0
M  END
$$$$

     RDKit          3D

 20 20  0  0  0  0  0  0  0  0999 V2000
    0.9667   -0.9945    1.1463 N   0  0  0  0  0  0  0  0  0  0  0  0
    1.0610   -0.5031   -0.1659 C   0  0  1  0  0  0  0  0  0  0  0  0
    0.2248    0.7420   -0.4037 C   0  0  0  0  0  0  0  0  0  0  0  0
   -1.2148    0.4837   -0.1552 C   0  0  0  0  0  0  0  0  0  0  0  0
   -2.1805    1.4545   -0.3018 C   0  0  0  0  0  0  0  0  0  0  0  0
   -3.3748    0.9449   -0.0147 N   0  0  0  0  0  0  0  0  0  0  0  0
   -3.1811   -0.3483    0.3156 C   0  0  0  0  0  0  0  0  0  0  0  0
   -1.8540   -0.6194    0.2259 N   0  0  0  0  0  0  0  0  0  0  0  0
    2.4680   -0.1285   -0.4507 C   0  0  0  0  0  0  0  0  0  0  0  0
    2.8327    0.3426   -1.5619 O   0  0  0  0  0  0  0  0  0  0  0  0
    3.4127   -0.3059    0.5484 O   0  0  0  0  0  0  0  0  0  0  0  0
    1.4272   -0.4820    1.8930 H   0  0  0  0  0  0  0  0  0  0  0  0
    0.8031   -1.9916    1.2811 H   0  0  0  0  0  0  0  0  0  0  0  0
    0.7680   -1.3024   -0.8783 H   0  0  0  0  0  0  0  0  0  0  0  0
    0.5968    1.5132    0.3016 H   0  0  0  0  0  0  0  0  0  0  0  0
    0.3173    1.0493   -1.4606 H   0  0  0  0  0  0  0  0  0  0  0  0
   -2.0421    2.5022   -0.6059 H   0  0  0  0  0  0  0  0  0  0  0  0
   -3.9380   -1.0399    0.5985 H   0  0  0  0  0  0  0  0  0  0  0  0
   -1.3989   -1.5256    0.4180 H   0  0  0  0  0  0  0  0  0  0  0  0
    4.3060    0.2087    0.5303 H   0  0  0  0  0  0  0  0  0  0  0  0
  1  2  1  0
  2  3  1  0
  3  4  1  0
  4  5  2  0
  5  6  1  0
  6  7  2  0
  7  8  1  0
  2  9  1  0
  9 10  2  0
  9 11  1  0
  8  4  1  0
  1 12  1  0
  1 13  1  0
  2 14  1  6
  3 15  1  0
  3 16  1  0
  5 17  1  0
  7 18  1  0
  8 19  1  0
 11 20  1  0
M  END
$$$$

     RDKit          3D

 20 20  0  0  0  0  0  0  0  0999 V2000
   -0.7643   -0.1981    1.7566 N   0  0  0  0  0  0  0  0  0  0  0  0
   -1.1101    0.2895    0.4411 C   0  0  1  0  0  0  0  0  0  0  0  0
   -0.2274   -0.3440   -0.6076 C   0  0  0  0  0  0  0  0  0  0  0  0
    1.1968   -0.0584   -0.3991 C   0  0  0  0  0  0  0  0  0  0  0  0
    1.7333    0.7085    0.6374 C   0  0  0  0  0  0  0  0  0  0  0  0
    3.0613    0.6941    0.4239 N   0  0  0  0  0  0  0  0  0  0  0  0
    3.3256   -0.0351   -0.6740 C   0  0  0  0  0  0  0  0  0  0  0  0
    2.1752   -0.5067   -1.1924 N   0  0  0  0  0  0  0  0  0  0  0  0
   -2.5420    0.0169    0.1191 C   0  0  0  0  0  0  0  0  0  0  0  0
   -3.3019   -0.5643    0.9248 O   0  0  0  0  0  0  0  0  0  0  0  0
   -3.0656    0.4109   -1.1028 O   0  0  0  0  0  0  0  0  0  0  0  0
   -1.0544    0.4654    2.5183 H   0  0  0  0  0  0  0  0  0  0  0  0
   -1.1047   -1.1692    1.9389 H   0  0  0  0  0  0  0  0  0  0  0  0
   -0.9465    1.3866    0.4386 H   0  0  0  0  0  0  0  0  0  0  0  0
   -0.4296   -1.4484   -0.6257 H   0  0  0  0  0  0  0  0  0  0  0  0
   -0.5068    0.0235   -1.6160 H   0  0  0  0  0  0  0  0  0  0  0  0
    1.1727    1.1950    1.4256 H   0  0  0  0  0  0  0  0  0  0  0  0
    4.3277   -0.1904   -1.0451 H   0  0  0  0  0  0  0  0  0  0  0  0
    2.1153   -1.1064   -2.0551 H   0  0  0  0  0  0  0  0  0  0  0  0
   -4.0545    0.4307   -1.3064 H   0  0  0  0  0  0  0  0  0  0  0  0
  1  2  1  0
  2  3  1  0
  3  4  1  0
  4  5  2  0
  5  6  1  0
  6  7  2  0
  7  8  1  0
  2  9  1  0
  9 10  2  0
  9 11  1  0
  8  4  1  0
  1 12  1  0
  1 13  1  0
  2 14  1  1
  3 15  1  0
  3 16  1  0
  5 17  1  0
  7 18  1  0
  8 19  1  0
 11 20  1  0
M  END
$$$$

     RDKit          3D

 20 20  0  0  0  0  0  0  0  0999 V2000
   -2.4654   -1.2268   -0.5188 N   0  0  0  0  0  0  0  0  0  0  0  0
   -1.3213   -0.5403    0.0402 C   0  0  1  0  0  0  0  0  0  0  0  0
   -0.0689   -0.9781   -0.6622 C   0  0  0  0  0  0  0  0  0  0  0  0
    1.0918   -0.2648   -0.0834 C   0  0  0  0  0  0  0  0  0  0  0  0
    1.8366   -0.7004    1.0120 C   0  0  0  0  0  0  0  0  0  0  0  0
    2.8027    0.2001    1.2277 N   0  0  0  0  0  0  0  0  0  0  0  0
    2.7029    1.1851    0.3187 C   0  0  0  0  0  0  0  0  0  0  0  0
    1.6676    0.8935   -0.4665 N   0  0  0  0  0  0  0  0  0  0  0  0
   -1.5849    0.9050   -0.0109 C   0  0  0  0  0  0  0  0  0  0  0  0
   -2.6219    1.3511   -0.5395 O   0  0  0  0  0  0  0  0  0  0  0  0
   -0.6754    1.7852    0.5336 O   0  0  0  0  0  0  0  0  0  0  0  0
   -2.2517   -1.8383   -1.3077 H   0  0  0  0  0  0  0  0  0  0  0  0
   -3.1385   -1.5594    0.1695 H   0  0  0  0  0  0  0  0  0  0  0  0
   -1.2381   -0.8767    1.1076 H   0  0  0  0  0  0  0  0  0  0  0  0
   -0.1290   -0.8571   -1.7636 H   0  0  0  0  0  0  0  0  0  0  0  0
    0.0688   -2.0647   -0.4296 H   0  0  0  0  0  0  0  0  0  0  0  0
    1.6118   -1.6244    1.5494 H   0  0  0  0  0  0  0  0  0  0  0  0
    3.3277    2.0751    0.2052 H   0  0  0  0  0  0  0  0  0  0  0  0
    1.3170    1.4625   -1.2891 H   0  0  0  0  0  0  0  0  0  0  0  0
   -0.9318    2.6732    0.9073 H   0  0  0  0  0  0  0  0  0  0  0  0
  1  2  1  0
  2  3  1  0
  3  4  1  0
  4  5  2  0
  5  6  1  0
  6  7  2  0
  7  8  1  0
  2  9  1  0
  9 10  2  0
  9 11  1  0
  8  4  1  0
  1 12  1  0
  1 13  1  0
  2 14  1  1
  3 15  1  0
  3 16  1  0
  5 17  1  0
  7 18  1  0
  8 19  1  0
 11 20  1  0
M  END
$$$$

     RDKit          3D

 20 20  0  0  0  0  0  0  0  0999 V2000
   -0.9748    0.7404    1.2151 N   0  0  0  0  0  0  0  0  0  0  0  0
   -1.1440    0.1365   -0.0913 C   0  0  1  0  0  0  0  0  0  0  0  0
   -0.1222   -0.9822   -0.2844 C   0  0  0  0  0  0  0  0  0  0  0  0
    1.2418   -0.4184   -0.1769 C   0  0  0  0  0  0  0  0  0  0  0  0
    1.9865   -0.2988    0.9568 C   0  0  0  0  0  0  0  0  0  0  0  0
    3.1508    0.2636    0.5852 N   0  0  0  0  0  0  0  0  0  0  0  0
    3.1515    0.4925   -0.7210 C   0  0  0  0  0  0  0  0  0  0  0  0
    1.9622    0.0720   -1.2204 N   0  0  0  0  0  0  0  0  0  0  0  0
   -2.5238   -0.4020   -0.1900 C   0  0  0  0  0  0  0  0  0  0  0  0
   -2.9055   -0.9818   -1.2532 O   0  0  0  0  0  0  0  0  0  0  0  0
   -3.4336   -0.3028    0.8373 O   0  0  0  0  0  0  0  0  0  0  0  0
   -0.0384    1.1960    1.2906 H   0  0  0  0  0  0  0  0  0  0  0  0
   -1.7670    1.3689    1.4177 H   0  0  0  0  0  0  0  0  0  0  0  0
   -0.9930    0.8977   -0.8836 H   0  0  0  0  0  0  0  0  0  0  0  0
   -0.3000   -1.4137   -1.2836 H   0  0  0  0  0  0  0  0  0  0  0  0
   -0.2664   -1.7524    0.4966 H   0  0  0  0  0  0  0  0  0  0  0  0
    1.6777   -0.6005    1.9273 H   0  0  0  0  0  0  0  0  0  0  0  0
    3.9515    0.9394   -1.3219 H   0  0  0  0  0  0  0  0  0  0  0  0
    1.6313    0.1021   -2.1994 H   0  0  0  0  0  0  0  0  0  0  0  0
   -4.2846   -0.8575    0.8992 H   0  0  0  0  0  0  0  0  0  0  0  0
  1  2  1  0
  2  3  1  0
  3  4  1  0
  4  5  2  0
  5  6  1  0
  6  7  2  0
  7  8  1  0
  2  9  1  0
  9 10  2  0
  9 11  1  0
  8  4  1  0
  1 12  1  0
  1 13  1  0
  2 14  1  6
  3 15  1  0
  3 16  1  0
  5 17  1  0
  7 18  1  0
  8 19  1  0
 11 20  1  0
M  END
$$$$

     RDKit          3D

 20 20  0  0  0  0  0  0  0  0999 V2000
   -2.1237   -1.4090    1.0368 N   0  0  0  0  0  0  0  0  0  0  0  0
   -0.9309   -0.5389    1.0065 C   0  0  1  0  0  0  0  0  0  0  0  0
   -0.1458   -0.8649   -0.2152 C   0  0  0  0  0  0  0  0  0  0  0  0
    1.1073   -0.1353   -0.3878 C   0  0  0  0  0  0  0  0  0  0  0  0
    1.8503   -0.1958   -1.5723 C   0  0  0  0  0  0  0  0  0  0  0  0
    2.9553    0.5347   -1.4359 N   0  0  0  0  0  0  0  0  0  0  0  0
    2.9360    1.0495   -0.2166 C   0  0  0  0  0  0  0  0  0  0  0  0
    1.8278    0.6488    0.4158 N   0  0  0  0  0  0  0  0  0  0  0  0
   -1.5140    0.8420    0.9055 C   0  0  0  0  0  0  0  0  0  0  0  0
   -0.7881    1.8348    0.7928 O   0  0  0  0  0  0  0  0  0  0  0  0
   -2.9019    1.0359    0.9372 O   0  0  0  0  0  0  0  0  0  0  0  0
   -2.8795   -1.0328    0.4484 H   0  0  0  0  0  0  0  0  0  0  0  0
   -1.8728   -2.3530    0.6605 H   0  0  0  0  0  0  0  0  0  0  0  0
   -0.4204   -0.6657    1.9590 H   0  0  0  0  0  0  0  0  0  0  0  0
   -0.7782   -0.6395   -1.1112 H   0  0  0  0  0  0  0  0  0  0  0  0
    0.0779   -1.9650   -0.2415 H   0  0  0  0  0  0  0  0  0  0  0  0
    1.5715   -0.7475   -2.4567 H   0  0  0  0  0  0  0  0  0  0  0  0
    3.6832    1.6894    0.2127 H   0  0  0  0  0  0  0  0  0  0  0  0
    1.5972    0.9106    1.3904 H   0  0  0  0  0  0  0  0  0  0  0  0
   -3.2512    2.0018    0.9043 H   0  0  0  0  0  0  0  0  0  0  0  0
  1  2  1  0
  2  3  1  0
  3  4  1  0
  4  5  2  0
  5  6  1  0
  6  7  2  0
  7  8  1  0
  2  9  1  0
  9 10  2  0
  9 11  1  0
  8  4  1  0
  1 12  1  0
  1 13  1  0
  2 14  1  1
  3 15  1  0
  3 16  1  0
  5 17  1  0
  7 18  1  0
  8 19  1  0
 11 20  1  0
M  END
$$$$

     RDKit          3D

 20 20  0  0  0  0  0  0  0  0999 V2000
   -0.9867    1.3421    0.8338 N   0  0  0  0  0  0  0  0  0  0  0  0
   -1.0055    0.5126   -0.3553 C   0  0  1  0  0  0  0  0  0  0  0  0
   -0.2228   -0.7587   -0.1438 C   0  0  0  0  0  0  0  0  0  0  0  0
    1.1854   -0.5173    0.1804 C   0  0  0  0  0  0  0  0  0  0  0  0
    2.0925   -1.5368    0.4157 C   0  0  0  0  0  0  0  0  0  0  0  0
    3.2891   -0.9729    0.6830 N   0  0  0  0  0  0  0  0  0  0  0  0
    3.1612    0.3835    0.6224 C   0  0  0  0  0  0  0  0  0  0  0  0
    1.8751    0.6239    0.3160 N   0  0  0  0  0  0  0  0  0  0  0  0
   -2.4106    0.2110   -0.7330 C   0  0  0  0  0  0  0  0  0  0  0  0
   -3.3522    0.6692   -0.0392 O   0  0  0  0  0  0  0  0  0  0  0  0
   -2.7417   -0.5602   -1.8259 O   0  0  0  0  0  0  0  0  0  0  0  0
   -1.2683    0.8132    1.6771 H   0  0  0  0  0  0  0  0  0  0  0  0
   -1.6624    2.1291    0.6561 H   0  0  0  0  0  0  0  0  0  0  0  0
   -0.5874    1.1311   -1.1790 H   0  0  0  0  0  0  0  0  0  0  0  0
   -0.2812   -1.3809   -1.0568 H   0  0  0  0  0  0  0  0  0  0  0  0
   -0.6936   -1.3310    0.6655 H   0  0  0  0  0  0  0  0  0  0  0  0
    1.9064   -2.5983    0.3962 H   0  0  0  0  0  0  0  0  0  0  0  0
    3.9457    1.0915    0.7900 H   0  0  0  0  0  0  0  0  0  0  0  0
    1.4674    1.5750    0.1991 H   0  0  0  0  0  0  0  0  0  0  0  0
   -3.7104   -0.8262   -1.9805 H   0  0  0  0  0  0  0  0  0  0  0  0
  1  2  1  0
  2  3  1  0
  3  4  1  0
  4  5  2  0
  5  6  1  0
  6  7  2  0
  7  8  1  0
  2  9  1  0
  9 10  2  0
  9 11  1  0
  8  4  1  0
  1 12  1  0
  1 13  1  0
  2 14  1  6
  3 15  1  0
  3 16  1  0
  5 17  1  0
  7 18  1  0
  8 19  1  0
 11 20  1  0
M  END
$$$$

     RDKit          3D

 20 20  0  0  0  0  0  0  0  0999 V2000
   -0.9958   -0.0505    1.4512 N   0  0  0  0  0  0  0  0  0  0  0  0
   -1.1413    0.4692    0.1130 C   0  0  1  0  0  0  0  0  0  0  0  0
   -0.3500   -0.4317   -0.8114 C   0  0  0  0  0  0  0  0  0  0  0  0
    1.0724   -0.4080   -0.3816 C   0  0  0  0  0  0  0  0  0  0  0  0
    1.6890   -1.2536    0.5370 C   0  0  0  0  0  0  0  0  0  0  0  0
    2.9781   -0.8985    0.6412 N   0  0  0  0  0  0  0  0  0  0  0  0
    3.2083    0.1345   -0.1697 C   0  0  0  0  0  0  0  0  0  0  0  0
    2.0414    0.4255   -0.7880 N   0  0  0  0  0  0  0  0  0  0  0  0
   -2.5524    0.5547   -0.2363 C   0  0  0  0  0  0  0  0  0  0  0  0
   -3.4325    0.2023    0.5799 O   0  0  0  0  0  0  0  0  0  0  0  0
   -2.9415    1.0256   -1.4729 O   0  0  0  0  0  0  0  0  0  0  0  0
   -1.0151   -1.0894    1.3805 H   0  0  0  0  0  0  0  0  0  0  0  0
   -0.0474    0.2319    1.7941 H   0  0  0  0  0  0  0  0  0  0  0  0
   -0.6741    1.4898    0.0488 H   0  0  0  0  0  0  0  0  0  0  0  0
   -0.7490   -1.4816   -0.7085 H   0  0  0  0  0  0  0  0  0  0  0  0
   -0.4126   -0.1370   -1.8669 H   0  0  0  0  0  0  0  0  0  0  0  0
    1.1610   -2.0495    1.0509 H   0  0  0  0  0  0  0  0  0  0  0  0
    4.1538    0.6391   -0.3022 H   0  0  0  0  0  0  0  0  0  0  0  0
    1.8765    1.1807   -1.4863 H   0  0  0  0  0  0  0  0  0  0  0  0
   -3.8686    1.4465   -1.6405 H   0  0  0  0  0  0  0  0  0  0  0  0
  1  2  1  0
  2  3  1  0
  3  4  1  0
  4  5  2  0
  5  6  1  0
  6  7  2  0
  7  8  1  0
  2  9  1  0
  9 10  2  0
  9 11  1  0
  8  4  1  0
  1 12  1  0
  1 13  1  0
  2 14  1  1
  3 15  1  0
  3 16  1  0
  5 17  1  0
  7 18  1  0
  8 19  1  0
 11 20  1  0
M  END
$$$$

     RDKit          3D

 20 20  0  0  0  0  0  0  0  0999 V2000
   -0.9080   -1.0140   -1.5561 N   0  0  0  0  0  0  0  0  0  0  0  0
   -1.3056   -0.6464   -0.2159 C   0  0  1  0  0  0  0  0  0  0  0  0
   -0.1996   -0.8127    0.7871 C   0  0  0  0  0  0  0  0  0  0  0  0
    0.9932   -0.0095    0.5117 C   0  0  0  0  0  0  0  0  0  0  0  0
    1.2552    1.2615    0.9469 C   0  0  0  0  0  0  0  0  0  0  0  0
    2.4529    1.6146    0.4650 N   0  0  0  0  0  0  0  0  0  0  0  0
    2.9158    0.5870   -0.2483 C   0  0  0  0  0  0  0  0  0  0  0  0
    2.0316   -0.4143   -0.2280 N   0  0  0  0  0  0  0  0  0  0  0  0
   -1.9023    0.6829   -0.2461 C   0  0  0  0  0  0  0  0  0  0  0  0
   -2.0475    1.3937   -1.2707 O   0  0  0  0  0  0  0  0  0  0  0  0
   -2.3562    1.2292    0.9511 O   0  0  0  0  0  0  0  0  0  0  0  0
   -1.7044   -1.4109   -2.1079 H   0  0  0  0  0  0  0  0  0  0  0  0
   -0.0845   -1.6594   -1.5649 H   0  0  0  0  0  0  0  0  0  0  0  0
   -2.1084   -1.3693    0.0839 H   0  0  0  0  0  0  0  0  0  0  0  0
   -0.6081   -0.5479    1.7784 H   0  0  0  0  0  0  0  0  0  0  0  0
    0.0213   -1.9127    0.8309 H   0  0  0  0  0  0  0  0  0  0  0  0
    0.6008    1.8974    1.5854 H   0  0  0  0  0  0  0  0  0  0  0  0
    3.8712    0.5417   -0.7807 H   0  0  0  0  0  0  0  0  0  0  0  0
    2.1543   -1.3548   -0.7196 H   0  0  0  0  0  0  0  0  0  0  0  0
   -3.0716    1.9438    0.9979 H   0  0  0  0  0  0  0  0  0  0  0  0
  1  2  1  0
  2  3  1  0
  3  4  1  0
  4  5  2  0
  5  6  1  0
  6  7  2  0
  7  8  1  0
  2  9  1  0
  9 10  2  0
  9 11  1  0
  8  4  1  0
  1 12  1  0
  1 13  1  0
  2 14  1  1
  3 15  1  0
  3 16  1  0
  5 17  1  0
  7 18  1  0
  8 19  1  0
 11 20  1  0
M  END
$$$$

     RDKit          3D

 20 20  0  0  0  0  0  0  0  0999 V2000
   -0.7909    1.1812    1.0870 N   0  0  0  0  0  0  0  0  0  0  0  0
   -1.1012    0.4839   -0.1287 C   0  0  1  0  0  0  0  0  0  0  0  0
   -0.2513   -0.7651   -0.1660 C   0  0  0  0  0  0  0  0  0  0  0  0
    1.1957   -0.4501   -0.1388 C   0  0  0  0  0  0  0  0  0  0  0  0
    2.1782   -1.4076   -0.1638 C   0  0  0  0  0  0  0  0  0  0  0  0
    3.3819   -0.8040   -0.1284 N   0  0  0  0  0  0  0  0  0  0  0  0
    3.1673    0.5266   -0.0813 C   0  0  0  0  0  0  0  0  0  0  0  0
    1.8300    0.7293   -0.0882 N   0  0  0  0  0  0  0  0  0  0  0  0
   -2.5130    0.0527   -0.1069 C   0  0  0  0  0  0  0  0  0  0  0  0
   -3.2143    0.3257    0.8907 O   0  0  0  0  0  0  0  0  0  0  0  0
   -3.0856   -0.6442   -1.1554 O   0  0  0  0  0  0  0  0  0  0  0  0
   -1.3305    0.7893    1.8875 H   0  0  0  0  0  0  0  0  0  0  0  0
   -0.8810    2.2161    1.0049 H   0  0  0  0  0  0  0  0  0  0  0  0
   -0.9078    1.1471   -0.9951 H   0  0  0  0  0  0  0  0  0  0  0  0
   -0.4557   -1.3571   -1.0872 H   0  0  0  0  0  0  0  0  0  0  0  0
   -0.5308   -1.3759    0.7167 H   0  0  0  0  0  0  0  0  0  0  0  0
    2.0358   -2.4741   -0.2049 H   0  0  0  0  0  0  0  0  0  0  0  0
    3.9341    1.2749   -0.0453 H   0  0  0  0  0  0  0  0  0  0  0  0
    1.3427    1.6432   -0.0595 H   0  0  0  0  0  0  0  0  0  0  0  0
   -4.0035   -1.0918   -1.0372 H   0  0  0  0  0  0  0  0  0  0  0  0
  1  2  1  0
  2  3  1  0
  3  4  1  0
  4  5  2  0
  5  6  1  0
  6  7  2  0
  7  8  1  0
  2  9  1  0
  9 10  2  0
  9 11  1  0
  8  4  1  0
  1 12  1  0
  1 13  1  0
  2 14  1  6
  3 15  1  0
  3 16  1  0
  5 17  1  0
  7 18  1  0
  8 19  1  0
 11 20  1  0
M  END
$$$$

     RDKit          3D

 20 20  0  0  0  0  0  0  0  0999 V2000
    0.6260   -1.5237    0.9134 N   0  0  0  0  0  0  0  0  0  0  0  0
    1.1098   -0.5060    0.0334 C   0  0  1  0  0  0  0  0  0  0  0  0
    0.3141    0.7671    0.0756 C   0  0  0  0  0  0  0  0  0  0  0  0
   -1.0902    0.5185   -0.3049 C   0  0  0  0  0  0  0  0  0  0  0  0
   -1.5860    0.5842   -1.6055 C   0  0  0  0  0  0  0  0  0  0  0  0
   -2.8965    0.3063   -1.6124 N   0  0  0  0  0  0  0  0  0  0  0  0
   -3.2213    0.0686   -0.3313 C   0  0  0  0  0  0  0  0  0  0  0  0
   -2.1259    0.1974    0.4606 N   0  0  0  0  0  0  0  0  0  0  0  0
    2.5192   -0.1608    0.3647 C   0  0  0  0  0  0  0  0  0  0  0  0
    3.1666   -0.6989    1.2870 O   0  0  0  0  0  0  0  0  0  0  0  0
    3.1312    0.8087   -0.3974 O   0  0  0  0  0  0  0  0  0  0  0  0
   -0.2483   -1.9520    0.5441 H   0  0  0  0  0  0  0  0  0  0  0  0
    1.3766   -2.2397    1.0292 H   0  0  0  0  0  0  0  0  0  0  0  0
    1.0767   -0.8851   -1.0091 H   0  0  0  0  0  0  0  0  0  0  0  0
    0.8101    1.4807   -0.6280 H   0  0  0  0  0  0  0  0  0  0  0  0
    0.3475    1.2248    1.0992 H   0  0  0  0  0  0  0  0  0  0  0  0
   -0.9831    0.8252   -2.4627 H   0  0  0  0  0  0  0  0  0  0  0  0
   -4.2017   -0.1942    0.0803 H   0  0  0  0  0  0  0  0  0  0  0  0
   -2.0800    0.0711    1.4938 H   0  0  0  0  0  0  0  0  0  0  0  0
    3.9553    1.3080   -0.1509 H   0  0  0  0  0  0  0  0  0  0  0  0
  1  2  1  0
  2  3  1  0
  3  4  1  0
  4  5  2  0
  5  6  1  0
  6  7  2  0
  7  8  1  0
  2  9  1  0
  9 10  2  0
  9 11  1  0
  8  4  1  0
  1 12  1  0
  1 13  1  0
  2 14  1  6
  3 15  1  0
  3 16  1  0
  5 17  1  0
  7 18  1  0
  8 19  1  0
 11 20  1  0
M  END
$$$$

     RDKit          3D

 20 20  0  0  0  0  0  0  0  0999 V2000
   -2.2682   -1.4122   -0.3004 N   0  0  0  0  0  0  0  0  0  0  0  0
   -1.2517   -0.5232    0.3400 C   0  0  1  0  0  0  0  0  0  0  0  0
    0.0050   -0.7848   -0.4119 C   0  0  0  0  0  0  0  0  0  0  0  0
    1.2012   -0.0620    0.0680 C   0  0  0  0  0  0  0  0  0  0  0  0
    1.4384    0.6690    1.1963 C   0  0  0  0  0  0  0  0  0  0  0  0
    2.7087    1.1378    1.1131 N   0  0  0  0  0  0  0  0  0  0  0  0
    3.2713    0.7215   -0.0306 C   0  0  0  0  0  0  0  0  0  0  0  0
    2.3399   -0.0097   -0.6578 N   0  0  0  0  0  0  0  0  0  0  0  0
   -1.7044    0.8907    0.0595 C   0  0  0  0  0  0  0  0  0  0  0  0
   -1.0366    1.8737    0.4226 O   0  0  0  0  0  0  0  0  0  0  0  0
   -2.8993    1.1324   -0.6231 O   0  0  0  0  0  0  0  0  0  0  0  0
   -3.0873   -1.5002    0.3138 H   0  0  0  0  0  0  0  0  0  0  0  0
   -1.7588   -2.3331   -0.4259 H   0  0  0  0  0  0  0  0  0  0  0  0
   -1.2368   -0.7374    1.4063 H   0  0  0  0  0  0  0  0  0  0  0  0
    0.2093   -1.8967   -0.4531 H   0  0  0  0  0  0  0  0  0  0  0  0
   -0.1343   -0.4933   -1.4879 H   0  0  0  0  0  0  0  0  0  0  0  0
    0.7656    0.8365    2.0150 H   0  0  0  0  0  0  0  0  0  0  0  0
    4.2682    0.9191   -0.3976 H   0  0  0  0  0  0  0  0  0  0  0  0
    2.4677   -0.4775   -1.5792 H   0  0  0  0  0  0  0  0  0  0  0  0
   -3.2978    2.0492   -0.5671 H   0  0  0  0  0  0  0  0  0  0  0  0
  1  2  1  0
  2  3  1  0
  3  4  1  0
  4  5  2  0
  5  6  1  0
  6  7  2  0
  7  8  1  0
  2  9  1  0
  9 10  2  0
  9 11  1  0
  8  4  1  0
  1 12  1  0
  1 13  1  0
  2 14  1  1
  3 15  1  0
  3 16  1  0
  5 17  1  0
  7 18  1  0
  8 19  1  0
 11 20  1  0
M  END
$$$$

     RDKit          3D

 20 20  0  0  0  0  0  0  0  0999 V2000
   -2.4106   -0.6656   -0.9342 N   0  0  0  0  0  0  0  0  0  0  0  0
   -1.2391   -0.4402   -0.1608 C   0  0  1  0  0  0  0  0  0  0  0  0
   -0.0351   -0.2466   -1.0185 C   0  0  0  0  0  0  0  0  0  0  0  0
    1.1891   -0.0132   -0.2397 C   0  0  0  0  0  0  0  0  0  0  0  0
    1.7244    1.1606    0.1789 C   0  0  0  0  0  0  0  0  0  0  0  0
    2.8460    0.8726    0.8560 N   0  0  0  0  0  0  0  0  0  0  0  0
    3.0205   -0.4567    0.8679 C   0  0  0  0  0  0  0  0  0  0  0  0
    1.9959   -1.0070    0.1901 N   0  0  0  0  0  0  0  0  0  0  0  0
   -1.4765    0.6626    0.7761 C   0  0  0  0  0  0  0  0  0  0  0  0
   -0.6081    1.0359    1.6037 O   0  0  0  0  0  0  0  0  0  0  0  0
   -2.6963    1.3320    0.7657 O   0  0  0  0  0  0  0  0  0  0  0  0
   -2.3375   -0.5874   -1.9362 H   0  0  0  0  0  0  0  0  0  0  0  0
   -3.1364   -1.2421   -0.5257 H   0  0  0  0  0  0  0  0  0  0  0  0
   -1.0572   -1.3814    0.4358 H   0  0  0  0  0  0  0  0  0  0  0  0
   -0.1874    0.6487   -1.6666 H   0  0  0  0  0  0  0  0  0  0  0  0
    0.0602   -1.1147   -1.7032 H   0  0  0  0  0  0  0  0  0  0  0  0
    1.3352    2.1477    0.0084 H   0  0  0  0  0  0  0  0  0  0  0  0
    3.8419   -0.9545    1.3429 H   0  0  0  0  0  0  0  0  0  0  0  0
    1.9010   -2.0370    0.0559 H   0  0  0  0  0  0  0  0  0  0  0  0
   -2.7300    2.2863    1.1035 H   0  0  0  0  0  0  0  0  0  0  0  0
  1  2  1  0
  2  3  1  0
  3  4  1  0
  4  5  2  0
  5  6  1  0
  6  7  2  0
  7  8  1  0
  2  9  1  0
  9 10  2  0
  9 11  1  0
  8  4  1  0
  1 12  1  0
  1 13  1  0
  2 14  1  1
  3 15  1  0
  3 16  1  0
  5 17  1  0
  7 18  1  0
  8 19  1  0
 11 20  1  0
M  END
$$$$

     RDKit          3D

 20 20  0  0  0  0  0  0  0  0999 V2000
    0.8342   -1.6151   -0.2413 N   0  0  0  0  0  0  0  0  0  0  0  0
    1.1469   -0.2006   -0.4365 C   0  0  1  0  0  0  0  0  0  0  0  0
    0.2130    0.5626    0.4999 C   0  0  0  0  0  0  0  0  0  0  0  0
   -1.1900    0.2758    0.1517 C   0  0  0  0  0  0  0  0  0  0  0  0
   -1.6644   -0.5447   -0.8518 C   0  0  0  0  0  0  0  0  0  0  0  0
   -3.0079   -0.4778   -0.7671 N   0  0  0  0  0  0  0  0  0  0  0  0
   -3.3949    0.3284    0.2206 C   0  0  0  0  0  0  0  0  0  0  0  0
   -2.2546    0.7948    0.7892 N   0  0  0  0  0  0  0  0  0  0  0  0
    2.5311    0.0757    0.0148 C   0  0  0  0  0  0  0  0  0  0  0  0
    3.2687   -0.8346    0.4877 O   0  0  0  0  0  0  0  0  0  0  0  0
    3.0217    1.3680   -0.0877 O   0  0  0  0  0  0  0  0  0  0  0  0
    1.2845   -1.9825    0.6238 H   0  0  0  0  0  0  0  0  0  0  0  0
    1.0736   -2.1458   -1.1017 H   0  0  0  0  0  0  0  0  0  0  0  0
    1.0004    0.0997   -1.4755 H   0  0  0  0  0  0  0  0  0  0  0  0
    0.4367    1.6500    0.4490 H   0  0  0  0  0  0  0  0  0  0  0  0
    0.4403    0.2426    1.5378 H   0  0  0  0  0  0  0  0  0  0  0  0
   -1.0859   -1.1248   -1.5631 H   0  0  0  0  0  0  0  0  0  0  0  0
   -4.4159    0.5636    0.5108 H   0  0  0  0  0  0  0  0  0  0  0  0
   -2.2639    1.4508    1.5923 H   0  0  0  0  0  0  0  0  0  0  0  0
    4.0265    1.5139   -0.0313 H   0  0  0  0  0  0  0  0  0  0  0  0
  1  2  1  0
  2  3  1  0
  3  4  1  0
  4  5  2  0
  5  6  1  0
  6  7  2  0
  7  8  1  0
  2  9  1  0
  9 10  2  0
  9 11  1  0
  8  4  1  0
  1 12  1  0
  1 13  1  0
  2 14  1  6
  3 15  1  0
  3 16  1  0
  5 17  1  0
  7 18  1  0
  8 19  1  0
 11 20  1  0
M  END
$$$$

     RDKit          3D

 20 20  0  0  0  0  0  0  0  0999 V2000
   -2.2947   -1.4005   -0.0029 N   0  0  0  0  0  0  0  0  0  0  0  0
   -1.2257   -0.5101    0.4192 C   0  0  1  0  0  0  0  0  0  0  0  0
    0.0224   -0.9421   -0.2879 C   0  0  0  0  0  0  0  0  0  0  0  0
    1.1975   -0.1125    0.0545 C   0  0  0  0  0  0  0  0  0  0  0  0
    1.6358    1.0313   -0.5709 C   0  0  0  0  0  0  0  0  0  0  0  0
    2.7557    1.4740    0.0693 N   0  0  0  0  0  0  0  0  0  0  0  0
    2.9934    0.6172    1.0636 C   0  0  0  0  0  0  0  0  0  0  0  0
    2.0645   -0.3335    1.0591 N   0  0  0  0  0  0  0  0  0  0  0  0
   -1.5984    0.8780    0.2227 C   0  0  0  0  0  0  0  0  0  0  0  0
   -0.8222    1.8058    0.5212 O   0  0  0  0  0  0  0  0  0  0  0  0
   -2.8316    1.1908   -0.3034 O   0  0  0  0  0  0  0  0  0  0  0  0
   -1.8851   -2.3133   -0.3020 H   0  0  0  0  0  0  0  0  0  0  0  0
   -2.8738   -0.9370   -0.7183 H   0  0  0  0  0  0  0  0  0  0  0  0
   -1.0969   -0.6830    1.5247 H   0  0  0  0  0  0  0  0  0  0  0  0
    0.2180   -2.0066    0.0350 H   0  0  0  0  0  0  0  0  0  0  0  0
   -0.1537   -1.0064   -1.3833 H   0  0  0  0  0  0  0  0  0  0  0  0
    1.2006    1.5317   -1.4268 H   0  0  0  0  0  0  0  0  0  0  0  0
    3.8487    0.7387    1.7481 H   0  0  0  0  0  0  0  0  0  0  0  0
    1.9995   -1.1326    1.7200 H   0  0  0  0  0  0  0  0  0  0  0  0
   -3.1542    2.1102   -0.5405 H   0  0  0  0  0  0  0  0  0  0  0  0
  1  2  1  0
  2  3  1  0
  3  4  1  0
  4  5  2  0
  5  6  1  0
  6  7  2  0
  7  8  1  0
  2  9  1  0
  9 10  2  0
  9 11  1  0
  8  4  1  0
  1 12  1  0
  1 13  1  0
  2 14  1  1
  3 15  1  0
  3 16  1  0
  5 17  1  0
  7 18  1  0
  8 19  1  0
 11 20  1  0
M  END
$$$$

     RDKit          3D

 20 20  0  0  0  0  0  0  0  0999 V2000
    1.3122   -0.3739    1.6119 N   0  0  0  0  0  0  0  0  0  0  0  0
    1.4743   -0.3891    0.1701 C   0  0  1  0  0  0  0  0  0  0  0  0
    0.3248   -1.1515   -0.4681 C   0  0  0  0  0  0  0  0  0  0  0  0
   -0.9695   -0.5392   -0.1605 C   0  0  0  0  0  0  0  0  0  0  0  0
   -1.7648   -0.8417    0.9236 C   0  0  0  0  0  0  0  0  0  0  0  0
   -2.8841   -0.0730    0.8739 N   0  0  0  0  0  0  0  0  0  0  0  0
   -2.7903    0.7012   -0.2280 C   0  0  0  0  0  0  0  0  0  0  0  0
   -1.6418    0.4172   -0.8428 N   0  0  0  0  0  0  0  0  0  0  0  0
    1.5114    1.0163   -0.3237 C   0  0  0  0  0  0  0  0  0  0  0  0
    1.4097    1.9878    0.4694 O   0  0  0  0  0  0  0  0  0  0  0  0
    1.6595    1.2990   -1.6757 O   0  0  0  0  0  0  0  0  0  0  0  0
    1.7552   -1.2204    1.9916 H   0  0  0  0  0  0  0  0  0  0  0  0
    1.8081    0.4817    1.9965 H   0  0  0  0  0  0  0  0  0  0  0  0
    2.4380   -0.8952   -0.0431 H   0  0  0  0  0  0  0  0  0  0  0  0
    0.3515   -2.1882   -0.1006 H   0  0  0  0  0  0  0  0  0  0  0  0
    0.5397   -1.1945   -1.5567 H   0  0  0  0  0  0  0  0  0  0  0  0
   -1.5721   -1.5692    1.7171 H   0  0  0  0  0  0  0  0  0  0  0  0
   -3.4949    1.4421   -0.5982 H   0  0  0  0  0  0  0  0  0  0  0  0
   -1.2407    0.8280   -1.7303 H   0  0  0  0  0  0  0  0  0  0  0  0
    1.7739    2.2628   -2.0262 H   0  0  0  0  0  0  0  0  0  0  0  0
  1  2  1  0
  2  3  1  0
  3  4  1  0
  4  5  2  0
  5  6  1  0
  6  7  2  0
  7  8  1  0
  2  9  1  0
  9 10  2  0
  9 11  1  0
  8  4  1  0
  1 12  1  0
  1 13  1  0
  2 14  1  1
  3 15  1  0
  3 16  1  0
  5 17  1  0
  7 18  1  0
  8 19  1  0
 11 20  1  0
M  END
$$$$

     RDKit          3D

 20 20  0  0  0  0  0  0  0  0999 V2000
   -0.8169    1.6288    0.6552 N   0  0  0  0  0  0  0  0  0  0  0  0
   -1.0650    0.4781   -0.1785 C   0  0  1  0  0  0  0  0  0  0  0  0
   -0.2555   -0.7139    0.1967 C   0  0  0  0  0  0  0  0  0  0  0  0
    1.2032   -0.4948    0.1183 C   0  0  0  0  0  0  0  0  0  0  0  0
    2.1133   -1.4844    0.4283 C   0  0  0  0  0  0  0  0  0  0  0  0
    3.3388   -0.9792    0.2601 N   0  0  0  0  0  0  0  0  0  0  0  0
    3.2245    0.2784   -0.1401 C   0  0  0  0  0  0  0  0  0  0  0  0
    1.9132    0.5739   -0.2265 N   0  0  0  0  0  0  0  0  0  0  0  0
   -2.5029    0.1217   -0.0403 C   0  0  0  0  0  0  0  0  0  0  0  0
   -3.2933    0.7828    0.7108 O   0  0  0  0  0  0  0  0  0  0  0  0
   -3.0726   -0.9507   -0.7191 O   0  0  0  0  0  0  0  0  0  0  0  0
   -1.4288    1.6483    1.5126 H   0  0  0  0  0  0  0  0  0  0  0  0
   -1.0939    2.5040    0.1217 H   0  0  0  0  0  0  0  0  0  0  0  0
   -0.9149    0.7779   -1.2380 H   0  0  0  0  0  0  0  0  0  0  0  0
   -0.4981   -1.0042    1.2328 H   0  0  0  0  0  0  0  0  0  0  0  0
   -0.5077   -1.5429   -0.4741 H   0  0  0  0  0  0  0  0  0  0  0  0
    1.9087   -2.4988    0.7529 H   0  0  0  0  0  0  0  0  0  0  0  0
    4.0470    0.9307   -0.3528 H   0  0  0  0  0  0  0  0  0  0  0  0
    1.4913    1.4813   -0.5133 H   0  0  0  0  0  0  0  0  0  0  0  0
   -3.7906   -1.5369   -0.3255 H   0  0  0  0  0  0  0  0  0  0  0  0
  1  2  1  0
  2  3  1  0
  3  4  1  0
  4  5  2  0
  5  6  1  0
  6  7  2  0
  7  8  1  0
  2  9  1  0
  9 10  2  0
  9 11  1  0
  8  4  1  0
  1 12  1  0
  1 13  1  0
  2 14  1  6
  3 15  1  0
  3 16  1  0
  5 17  1  0
  7 18  1  0
  8 19  1  0
 11 20  1  0
M  END
$$$$

     RDKit          3D

 20 20  0  0  0  0  0  0  0  0999 V2000
   -2.3402   -1.5088   -0.0868 N   0  0  0  0  0  0  0  0  0  0  0  0
   -1.2832   -0.6742    0.4493 C   0  0  1  0  0  0  0  0  0  0  0  0
   -0.0193   -1.0488   -0.2893 C   0  0  0  0  0  0  0  0  0  0  0  0
    1.1573   -0.3017    0.1247 C   0  0  0  0  0  0  0  0  0  0  0  0
    2.0506   -0.6296    1.1169 C   0  0  0  0  0  0  0  0  0  0  0  0
    3.0122    0.3401    1.1834 N   0  0  0  0  0  0  0  0  0  0  0  0
    2.7157    1.2495    0.2478 C   0  0  0  0  0  0  0  0  0  0  0  0
    1.5894    0.8558   -0.3920 N   0  0  0  0  0  0  0  0  0  0  0  0
   -1.6621    0.7303    0.2763 C   0  0  0  0  0  0  0  0  0  0  0  0
   -2.7578    1.0055   -0.2667 O   0  0  0  0  0  0  0  0  0  0  0  0
   -0.8740    1.8030    0.6812 O   0  0  0  0  0  0  0  0  0  0  0  0
   -3.2757   -1.0999    0.0605 H   0  0  0  0  0  0  0  0  0  0  0  0
   -2.1869   -1.5189   -1.1380 H   0  0  0  0  0  0  0  0  0  0  0  0
   -1.1806   -0.9278    1.5333 H   0  0  0  0  0  0  0  0  0  0  0  0
    0.1014   -2.1598   -0.1349 H   0  0  0  0  0  0  0  0  0  0  0  0
   -0.2541   -0.9439   -1.3819 H   0  0  0  0  0  0  0  0  0  0  0  0
    2.0450   -1.4795    1.7558 H   0  0  0  0  0  0  0  0  0  0  0  0
    3.2433    2.1630   -0.0046 H   0  0  0  0  0  0  0  0  0  0  0  0
    1.1313    1.3797   -1.1702 H   0  0  0  0  0  0  0  0  0  0  0  0
   -1.2122    2.7659    0.5570 H   0  0  0  0  0  0  0  0  0  0  0  0
  1  2  1  0
  2  3  1  0
  3  4  1  0
  4  5  2  0
  5  6  1  0
  6  7  2  0
  7  8  1  0
  2  9  1  0
  9 10  2  0
  9 11  1  0
  8  4  1  0
  1 12  1  0
  1 13  1  0
  2 14  1  1
  3 15  1  0
  3 16  1  0
  5 17  1  0
  7 18  1  0
  8 19  1  0
 11 20  1  0
M  END
$$$$

     RDKit          3D

 20 20  0  0  0  0  0  0  0  0999 V2000
   -1.6614   -0.9869   -1.0043 N   0  0  0  0  0  0  0  0  0  0  0  0
   -1.5211   -0.4701    0.3218 C   0  0  1  0  0  0  0  0  0  0  0  0
   -0.2392   -0.8665    0.9996 C   0  0  0  0  0  0  0  0  0  0  0  0
    0.9667   -0.4178    0.2962 C   0  0  0  0  0  0  0  0  0  0  0  0
    1.6832   -1.0675   -0.6723 C   0  0  0  0  0  0  0  0  0  0  0  0
    2.7063   -0.2861   -1.0283 N   0  0  0  0  0  0  0  0  0  0  0  0
    2.6541    0.8410   -0.3091 C   0  0  0  0  0  0  0  0  0  0  0  0
    1.5880    0.7579    0.5012 N   0  0  0  0  0  0  0  0  0  0  0  0
   -1.6395    0.9966    0.2944 C   0  0  0  0  0  0  0  0  0  0  0  0
   -1.5385    1.6162    1.3913 O   0  0  0  0  0  0  0  0  0  0  0  0
   -1.8545    1.7012   -0.8785 O   0  0  0  0  0  0  0  0  0  0  0  0
   -1.4652   -2.0027   -1.0913 H   0  0  0  0  0  0  0  0  0  0  0  0
   -1.2225   -0.4072   -1.7432 H   0  0  0  0  0  0  0  0  0  0  0  0
   -2.3552   -0.8646    0.9396 H   0  0  0  0  0  0  0  0  0  0  0  0
   -0.2634   -0.4185    2.0194 H   0  0  0  0  0  0  0  0  0  0  0  0
   -0.2097   -1.9751    1.1655 H   0  0  0  0  0  0  0  0  0  0  0  0
    1.4933   -2.0427   -1.1049 H   0  0  0  0  0  0  0  0  0  0  0  0
    3.3167    1.7061   -0.3240 H   0  0  0  0  0  0  0  0  0  0  0  0
    1.2853    1.4771    1.1774 H   0  0  0  0  0  0  0  0  0  0  0  0
   -1.7235    2.7094   -0.9504 H   0  0  0  0  0  0  0  0  0  0  0  0
  1  2  1  0
  2  3  1  0
  3  4  1  0
  4  5  2  0
  5  6  1  0
  6  7  2  0
  7  8  1  0
  2  9  1  0
  9 10  2  0
  9 11  1  0
  8  4  1  0
  1 12  1  0
  1 13  1  0
  2 14  1  1
  3 15  1  0
  3 16  1  0
  5 17  1  0
  7 18  1  0
  8 19  1  0
 11 20  1  0
M  END
$$$$

     RDKit          3D

 20 20  0  0  0  0  0  0  0  0999 V2000
    1.1530    0.0160    1.7616 N   0  0  0  0  0  0  0  0  0  0  0  0
    1.3037   -0.5447    0.4572 C   0  0  1  0  0  0  0  0  0  0  0  0
    0.0702   -1.2199   -0.0722 C   0  0  0  0  0  0  0  0  0  0  0  0
   -1.0889   -0.3215   -0.1840 C   0  0  0  0  0  0  0  0  0  0  0  0
   -1.3946    0.4235   -1.3020 C   0  0  0  0  0  0  0  0  0  0  0  0
   -2.5026    1.0965   -1.0110 N   0  0  0  0  0  0  0  0  0  0  0  0
   -2.8838    0.7920    0.2378 C   0  0  0  0  0  0  0  0  0  0  0  0
   -2.0152   -0.0864    0.7610 N   0  0  0  0  0  0  0  0  0  0  0  0
    1.8602    0.4381   -0.5042 C   0  0  0  0  0  0  0  0  0  0  0  0
    2.1381    1.6043   -0.1327 O   0  0  0  0  0  0  0  0  0  0  0  0
    2.0832    0.0929   -1.8209 O   0  0  0  0  0  0  0  0  0  0  0  0
    2.1136    0.0383    2.2056 H   0  0  0  0  0  0  0  0  0  0  0  0
    0.8530    1.0263    1.7358 H   0  0  0  0  0  0  0  0  0  0  0  0
    2.0855   -1.3560    0.5421 H   0  0  0  0  0  0  0  0  0  0  0  0
    0.3145   -1.5928   -1.0881 H   0  0  0  0  0  0  0  0  0  0  0  0
   -0.2030   -2.1112    0.5208 H   0  0  0  0  0  0  0  0  0  0  0  0
   -0.8666    0.4835   -2.2562 H   0  0  0  0  0  0  0  0  0  0  0  0
   -3.7559    1.1708    0.7900 H   0  0  0  0  0  0  0  0  0  0  0  0
   -2.0537   -0.5127    1.7345 H   0  0  0  0  0  0  0  0  0  0  0  0
    2.7894    0.5629   -2.3751 H   0  0  0  0  0  0  0  0  0  0  0  0
  1  2  1  0
  2  3  1  0
  3  4  1  0
  4  5  2  0
  5  6  1  0
  6  7  2  0
  7  8  1  0
  2  9  1  0
  9 10  2  0
  9 11  1  0
  8  4  1  0
  1 12  1  0
  1 13  1  0
  2 14  1  1
  3 15  1  0
  3 16  1  0
  5 17  1  0
  7 18  1  0
  8 19  1  0
 11 20  1  0
M  END
$$$$

     RDKit          3D

 20 20  0  0  0  0  0  0  0  0999 V2000
    2.2794    1.4923   -0.0504 N   0  0  0  0  0  0  0  0  0  0  0  0
    1.2496    0.5204    0.3536 C   0  0  1  0  0  0  0  0  0  0  0  0
   -0.0437    0.8698   -0.3093 C   0  0  0  0  0  0  0  0  0  0  0  0
   -1.1828    0.0251    0.0485 C   0  0  0  0  0  0  0  0  0  0  0  0
   -1.3402   -0.9055    1.0523 C   0  0  0  0  0  0  0  0  0  0  0  0
   -2.5729   -1.4117    0.9099 N   0  0  0  0  0  0  0  0  0  0  0  0
   -3.1840   -0.8358   -0.1346 C   0  0  0  0  0  0  0  0  0  0  0  0
   -2.3361    0.0421   -0.6615 N   0  0  0  0  0  0  0  0  0  0  0  0
    1.7701   -0.7944   -0.1666 C   0  0  0  0  0  0  0  0  0  0  0  0
    1.0421   -1.8004   -0.0816 O   0  0  0  0  0  0  0  0  0  0  0  0
    3.0424   -0.8762   -0.7304 O   0  0  0  0  0  0  0  0  0  0  0  0
    1.9658    2.4289    0.2364 H   0  0  0  0  0  0  0  0  0  0  0  0
    2.4069    1.3784   -1.0821 H   0  0  0  0  0  0  0  0  0  0  0  0
    1.1468    0.4536    1.4363 H   0  0  0  0  0  0  0  0  0  0  0  0
   -0.2977    1.9343   -0.0373 H   0  0  0  0  0  0  0  0  0  0  0  0
    0.0520    0.8787   -1.4244 H   0  0  0  0  0  0  0  0  0  0  0  0
   -0.6154   -1.1732    1.8336 H   0  0  0  0  0  0  0  0  0  0  0  0
   -4.1930   -1.0726   -0.4597 H   0  0  0  0  0  0  0  0  0  0  0  0
   -2.5614    0.6392   -1.4995 H   0  0  0  0  0  0  0  0  0  0  0  0
    3.3721   -1.7928   -1.0091 H   0  0  0  0  0  0  0  0  0  0  0  0
  1  2  1  0
  2  3  1  0
  3  4  1  0
  4  5  2  0
  5  6  1  0
  6  7  2  0
  7  8  1  0
  2  9  1  0
  9 10  2  0
  9 11  1  0
  8  4  1  0
  1 12  1  0
  1 13  1  0
  2 14  1  1
  3 15  1  0
  3 16  1  0
  5 17  1  0
  7 18  1  0
  8 19  1  0
 11 20  1  0
M  END
$$$$

     RDKit          3D

 20 20  0  0  0  0  0  0  0  0999 V2000
   -1.2055   -1.0526    1.2914 N   0  0  0  0  0  0  0  0  0  0  0  0
   -1.1210    0.1872    0.6412 C   0  0  1  0  0  0  0  0  0  0  0  0
   -0.2169    0.2122   -0.5694 C   0  0  0  0  0  0  0  0  0  0  0  0
    1.1875   -0.1429   -0.2319 C   0  0  0  0  0  0  0  0  0  0  0  0
    1.7059   -1.4175   -0.2453 C   0  0  0  0  0  0  0  0  0  0  0  0
    2.9998   -1.3366    0.1150 N   0  0  0  0  0  0  0  0  0  0  0  0
    3.2960   -0.0271    0.3533 C   0  0  0  0  0  0  0  0  0  0  0  0
    2.1896    0.7052    0.1420 N   0  0  0  0  0  0  0  0  0  0  0  0
   -2.4609    0.6308    0.2140 C   0  0  0  0  0  0  0  0  0  0  0  0
   -3.4827   -0.0828    0.4500 O   0  0  0  0  0  0  0  0  0  0  0  0
   -2.6979    1.8250   -0.4574 O   0  0  0  0  0  0  0  0  0  0  0  0
   -0.7899   -1.1503    2.2147 H   0  0  0  0  0  0  0  0  0  0  0  0
   -1.9017   -1.7189    0.9980 H   0  0  0  0  0  0  0  0  0  0  0  0
   -0.7013    0.9480    1.3560 H   0  0  0  0  0  0  0  0  0  0  0  0
   -0.2372    1.2032   -1.0670 H   0  0  0  0  0  0  0  0  0  0  0  0
   -0.5613   -0.5194   -1.3292 H   0  0  0  0  0  0  0  0  0  0  0  0
    1.1615   -2.3148   -0.5011 H   0  0  0  0  0  0  0  0  0  0  0  0
    4.2499    0.3624    0.6587 H   0  0  0  0  0  0  0  0  0  0  0  0
    2.1067    1.7519    0.2459 H   0  0  0  0  0  0  0  0  0  0  0  0
   -3.5207    1.9370   -1.0431 H   0  0  0  0  0  0  0  0  0  0  0  0
  1  2  1  0
  2  3  1  0
  3  4  1  0
  4  5  2  0
  5  6  1  0
  6  7  2  0
  7  8  1  0
  2  9  1  0
  9 10  2  0
  9 11  1  0
  8  4  1  0
  1 12  1  0
  1 13  1  0
  2 14  1  1
  3 15  1  0
  3 16  1  0
  5 17  1  0
  7 18  1  0
  8 19  1  0
 11 20  1  0
M  END
$$$$

     RDKit          3D

 20 20  0  0  0  0  0  0  0  0999 V2000
   -0.6885   -0.8927    1.3880 N   0  0  0  0  0  0  0  0  0  0  0  0
   -1.0474    0.2429    0.5615 C   0  0  1  0  0  0  0  0  0  0  0  0
   -0.2801    0.1974   -0.7631 C   0  0  0  0  0  0  0  0  0  0  0  0
    1.1594    0.2368   -0.4773 C   0  0  0  0  0  0  0  0  0  0  0  0
    2.0114    1.3100   -0.3516 C   0  0  0  0  0  0  0  0  0  0  0  0
    3.2407    0.8335   -0.0864 N   0  0  0  0  0  0  0  0  0  0  0  0
    3.2047   -0.4961   -0.0385 C   0  0  0  0  0  0  0  0  0  0  0  0
    1.9303   -0.8576   -0.2781 N   0  0  0  0  0  0  0  0  0  0  0  0
   -2.4951    0.1624    0.2535 C   0  0  0  0  0  0  0  0  0  0  0  0
   -3.2057   -0.7754    0.6861 O   0  0  0  0  0  0  0  0  0  0  0  0
   -3.1317    1.1205   -0.5275 O   0  0  0  0  0  0  0  0  0  0  0  0
   -1.3631   -0.9398    2.1617 H   0  0  0  0  0  0  0  0  0  0  0  0
   -0.7025   -1.7355    0.7803 H   0  0  0  0  0  0  0  0  0  0  0  0
   -0.8423    1.2142    1.0513 H   0  0  0  0  0  0  0  0  0  0  0  0
   -0.6359    0.9612   -1.4567 H   0  0  0  0  0  0  0  0  0  0  0  0
   -0.5517   -0.7923   -1.2165 H   0  0  0  0  0  0  0  0  0  0  0  0
    1.7019    2.3410   -0.4561 H   0  0  0  0  0  0  0  0  0  0  0  0
    4.0600   -1.1533    0.1595 H   0  0  0  0  0  0  0  0  0  0  0  0
    1.5788   -1.8379   -0.3077 H   0  0  0  0  0  0  0  0  0  0  0  0
   -3.9432    0.8608   -1.0821 H   0  0  0  0  0  0  0  0  0  0  0  0
  1  2  1  0
  2  3  1  0
  3  4  1  0
  4  5  2  0
  5  6  1  0
  6  7  2  0
  7  8  1  0
  2  9  1  0
  9 10  2  0
  9 11  1  0
  8  4  1  0
  1 12  1  0
  1 13  1  0
  2 14  1  1
  3 15  1  0
  3 16  1  0
  5 17  1  0
  7 18  1  0
  8 19  1  0
 11 20  1  0
M  END
$$$$

     RDKit          3D

 20 20  0  0  0  0  0  0  0  0999 V2000
   -0.7422    1.2660    0.8570 N   0  0  0  0  0  0  0  0  0  0  0  0
   -1.0055    0.3979   -0.2575 C   0  0  1  0  0  0  0  0  0  0  0  0
   -0.3562   -0.9357    0.0355 C   0  0  0  0  0  0  0  0  0  0  0  0
    1.0924   -0.6993    0.1995 C   0  0  0  0  0  0  0  0  0  0  0  0
    1.7781   -0.4020    1.3527 C   0  0  0  0  0  0  0  0  0  0  0  0
    3.0946   -0.2664    1.0423 N   0  0  0  0  0  0  0  0  0  0  0  0
    3.2316   -0.4729   -0.2699 C   0  0  0  0  0  0  0  0  0  0  0  0
    2.0180   -0.7339   -0.7727 N   0  0  0  0  0  0  0  0  0  0  0  0
   -2.4331    0.3099   -0.5214 C   0  0  0  0  0  0  0  0  0  0  0  0
   -2.9285   -0.3839   -1.4428 O   0  0  0  0  0  0  0  0  0  0  0  0
   -3.3089    1.0252    0.2790 O   0  0  0  0  0  0  0  0  0  0  0  0
   -0.2299    2.1248    0.6298 H   0  0  0  0  0  0  0  0  0  0  0  0
   -1.5258    1.3729    1.5096 H   0  0  0  0  0  0  0  0  0  0  0  0
   -0.4976    0.8102   -1.1590 H   0  0  0  0  0  0  0  0  0  0  0  0
   -0.4740   -1.6466   -0.8134 H   0  0  0  0  0  0  0  0  0  0  0  0
   -0.7770   -1.4130    0.9438 H   0  0  0  0  0  0  0  0  0  0  0  0
    1.3845   -0.2880    2.3424 H   0  0  0  0  0  0  0  0  0  0  0  0
    4.1403   -0.4370   -0.8191 H   0  0  0  0  0  0  0  0  0  0  0  0
    1.7741   -0.9411   -1.7716 H   0  0  0  0  0  0  0  0  0  0  0  0
   -4.2348    1.3131   -0.0169 H   0  0  0  0  0  0  0  0  0  0  0  0
  1  2  1  0
  2  3  1  0
  3  4  1  0
  4  5  2  0
  5  6  1  0
  6  7  2  0
  7  8  1  0
  2  9  1  0
  9 10  2  0
  9 11  1  0
  8  4  1  0
  1 12  1  0
  1 13  1  0
  2 14  1  6
  3 15  1  0
  3 16  1  0
  5 17  1  0
  7 18  1  0
  8 19  1  0
 11 20  1  0
M  END
$$$$

     RDKit          3D

 20 20  0  0  0  0  0  0  0  0999 V2000
   -0.9184   -1.6520   -0.0262 N   0  0  0  0  0  0  0  0  0  0  0  0
   -1.1859   -0.2684    0.3036 C   0  0  1  0  0  0  0  0  0  0  0  0
   -0.2382    0.6644   -0.4117 C   0  0  0  0  0  0  0  0  0  0  0  0
    1.1703    0.4297   -0.0856 C   0  0  0  0  0  0  0  0  0  0  0  0
    1.8616    1.0306    0.9423 C   0  0  0  0  0  0  0  0  0  0  0  0
    3.1344    0.5431    0.9033 N   0  0  0  0  0  0  0  0  0  0  0  0
    3.2489   -0.3272   -0.1018 C   0  0  0  0  0  0  0  0  0  0  0  0
    2.0285   -0.3828   -0.6982 N   0  0  0  0  0  0  0  0  0  0  0  0
   -2.5536    0.0467   -0.1573 C   0  0  0  0  0  0  0  0  0  0  0  0
   -3.2671   -0.8066   -0.7209 O   0  0  0  0  0  0  0  0  0  0  0  0
   -3.0508    1.3186    0.0429 O   0  0  0  0  0  0  0  0  0  0  0  0
    0.0394   -1.9535    0.1859 H   0  0  0  0  0  0  0  0  0  0  0  0
   -1.6166   -2.2398    0.4749 H   0  0  0  0  0  0  0  0  0  0  0  0
   -1.1291   -0.1647    1.4082 H   0  0  0  0  0  0  0  0  0  0  0  0
   -0.5692    1.7069   -0.1351 H   0  0  0  0  0  0  0  0  0  0  0  0
   -0.4653    0.5767   -1.4975 H   0  0  0  0  0  0  0  0  0  0  0  0
    1.5104    1.7542    1.6670 H   0  0  0  0  0  0  0  0  0  0  0  0
    4.1341   -0.8841   -0.3929 H   0  0  0  0  0  0  0  0  0  0  0  0
    1.8555   -0.9971   -1.5177 H   0  0  0  0  0  0  0  0  0  0  0  0
   -3.9889    1.6053   -0.1831 H   0  0  0  0  0  0  0  0  0  0  0  0
  1  2  1  0
  2  3  1  0
  3  4  1  0
  4  5  2  0
  5  6  1  0
  6  7  2  0
  7  8  1  0
  2  9  1  0
  9 10  2  0
  9 11  1  0
  8  4  1  0
  1 12  1  0
  1 13  1  0
  2 14  1  1
  3 15  1  0
  3 16  1  0
  5 17  1  0
  7 18  1  0
  8 19  1  0
 11 20  1  0
M  END
$$$$

     RDKit          3D

 20 20  0  0  0  0  0  0  0  0999 V2000
   -2.5001   -0.0252   -1.0503 N   0  0  0  0  0  0  0  0  0  0  0  0
   -1.2418   -0.4823   -0.4370 C   0  0  1  0  0  0  0  0  0  0  0  0
   -0.1895    0.4820   -0.8844 C   0  0  0  0  0  0  0  0  0  0  0  0
    1.1628    0.1833   -0.3619 C   0  0  0  0  0  0  0  0  0  0  0  0
    2.1045   -0.6226   -0.9692 C   0  0  0  0  0  0  0  0  0  0  0  0
    3.1962   -0.6277   -0.1679 N   0  0  0  0  0  0  0  0  0  0  0  0
    2.9388    0.1449    0.8930 C   0  0  0  0  0  0  0  0  0  0  0  0
    1.6941    0.6468    0.7831 N   0  0  0  0  0  0  0  0  0  0  0  0
   -1.4260   -0.4544    1.0295 C   0  0  0  0  0  0  0  0  0  0  0  0
   -0.4681   -0.8200    1.7545 O   0  0  0  0  0  0  0  0  0  0  0  0
   -2.6083   -0.0424    1.6154 O   0  0  0  0  0  0  0  0  0  0  0  0
   -2.6833    0.9175   -0.6159 H   0  0  0  0  0  0  0  0  0  0  0  0
   -2.2753    0.1098   -2.0642 H   0  0  0  0  0  0  0  0  0  0  0  0
   -0.9833   -1.4953   -0.8110 H   0  0  0  0  0  0  0  0  0  0  0  0
   -0.5134    1.5055   -0.5430 H   0  0  0  0  0  0  0  0  0  0  0  0
   -0.1799    0.5389   -1.9901 H   0  0  0  0  0  0  0  0  0  0  0  0
    1.9500   -1.1289   -1.9041 H   0  0  0  0  0  0  0  0  0  0  0  0
    3.6521    0.3155    1.6985 H   0  0  0  0  0  0  0  0  0  0  0  0
    1.2785    1.2826    1.5036 H   0  0  0  0  0  0  0  0  0  0  0  0
   -2.9078   -0.4280    2.5213 H   0  0  0  0  0  0  0  0  0  0  0  0
  1  2  1  0
  2  3  1  0
  3  4  1  0
  4  5  2  0
  5  6  1  0
  6  7  2  0
  7  8  1  0
  2  9  1  0
  9 10  2  0
  9 11  1  0
  8  4  1  0
  1 12  1  0
  1 13  1  0
  2 14  1  6
  3 15  1  0
  3 16  1  0
  5 17  1  0
  7 18  1  0
  8 19  1  0
 11 20  1  0
M  END
$$$$

     RDKit          3D

 20 20  0  0  0  0  0  0  0  0999 V2000
    0.9020   -1.4353   -0.8708 N   0  0  0  0  0  0  0  0  0  0  0  0
    1.1001   -0.0325   -0.5943 C   0  0  1  0  0  0  0  0  0  0  0  0
    0.2930    0.3743    0.5968 C   0  0  0  0  0  0  0  0  0  0  0  0
   -1.1576    0.1623    0.4115 C   0  0  0  0  0  0  0  0  0  0  0  0
   -1.8603   -0.3324   -0.6447 C   0  0  0  0  0  0  0  0  0  0  0  0
   -3.1579   -0.3303   -0.3376 N   0  0  0  0  0  0  0  0  0  0  0  0
   -3.2926    0.1587    0.8995 C   0  0  0  0  0  0  0  0  0  0  0  0
   -2.0695    0.4579    1.3526 N   0  0  0  0  0  0  0  0  0  0  0  0
    2.5328    0.1672   -0.2672 C   0  0  0  0  0  0  0  0  0  0  0  0
    3.3787   -0.7605   -0.2502 O   0  0  0  0  0  0  0  0  0  0  0  0
    2.9655    1.4435    0.0365 O   0  0  0  0  0  0  0  0  0  0  0  0
    1.7958   -1.9464   -0.9234 H   0  0  0  0  0  0  0  0  0  0  0  0
    0.1965   -1.8787   -0.2380 H   0  0  0  0  0  0  0  0  0  0  0  0
    0.8283    0.5718   -1.4886 H   0  0  0  0  0  0  0  0  0  0  0  0
    0.4793    1.4345    0.8509 H   0  0  0  0  0  0  0  0  0  0  0  0
    0.6023   -0.2780    1.4520 H   0  0  0  0  0  0  0  0  0  0  0  0
   -1.3840   -0.6673   -1.5814 H   0  0  0  0  0  0  0  0  0  0  0  0
   -4.2232    0.3012    1.4674 H   0  0  0  0  0  0  0  0  0  0  0  0
   -1.8550    0.8663    2.3097 H   0  0  0  0  0  0  0  0  0  0  0  0
    3.9257    1.7237   -0.1457 H   0  0  0  0  0  0  0  0  0  0  0  0
  1  2  1  0
  2  3  1  0
  3  4  1  0
  4  5  2  0
  5  6  1  0
  6  7  2  0
  7  8  1  0
  2  9  1  0
  9 10  2  0
  9 11  1  0
  8  4  1  0
  1 12  1  0
  1 13  1  0
  2 14  1  6
  3 15  1  0
  3 16  1  0
  5 17  1  0
  7 18  1  0
  8 19  1  0
 11 20  1  0
M  END
$$$$

     RDKit          3D

 20 20  0  0  0  0  0  0  0  0999 V2000
   -0.7609   -1.5665    0.7144 N   0  0  0  0  0  0  0  0  0  0  0  0
   -1.1452   -0.1786    0.5342 C   0  0  1  0  0  0  0  0  0  0  0  0
   -0.2162    0.4491   -0.4621 C   0  0  0  0  0  0  0  0  0  0  0  0
    1.1969    0.4148   -0.0356 C   0  0  0  0  0  0  0  0  0  0  0  0
    2.2166    0.9368   -0.8020 C   0  0  0  0  0  0  0  0  0  0  0  0
    3.3907    0.7574   -0.1510 N   0  0  0  0  0  0  0  0  0  0  0  0
    3.0910    0.1357    0.9942 C   0  0  0  0  0  0  0  0  0  0  0  0
    1.7689   -0.0753    1.0728 N   0  0  0  0  0  0  0  0  0  0  0  0
   -2.5089   -0.1703   -0.0580 C   0  0  0  0  0  0  0  0  0  0  0  0
   -3.1346   -1.2263   -0.3196 O   0  0  0  0  0  0  0  0  0  0  0  0
   -3.1461    1.0280   -0.3463 O   0  0  0  0  0  0  0  0  0  0  0  0
   -1.6295   -2.1141    0.9084 H   0  0  0  0  0  0  0  0  0  0  0  0
   -0.3460   -1.8935   -0.1751 H   0  0  0  0  0  0  0  0  0  0  0  0
   -1.1425    0.3302    1.5148 H   0  0  0  0  0  0  0  0  0  0  0  0
   -0.2999   -0.1399   -1.4056 H   0  0  0  0  0  0  0  0  0  0  0  0
   -0.5108    1.5087   -0.6194 H   0  0  0  0  0  0  0  0  0  0  0  0
    2.1515    1.4228   -1.7734 H   0  0  0  0  0  0  0  0  0  0  0  0
    3.8237   -0.1455    1.7331 H   0  0  0  0  0  0  0  0  0  0  0  0
    1.2144   -0.5346    1.8341 H   0  0  0  0  0  0  0  0  0  0  0  0
   -4.0131    1.0611   -0.8584 H   0  0  0  0  0  0  0  0  0  0  0  0
  1  2  1  0
  2  3  1  0
  3  4  1  0
  4  5  2  0
  5  6  1  0
  6  7  2  0
  7  8  1  0
  2  9  1  0
  9 10  2  0
  9 11  1  0
  8  4  1  0
  1 12  1  0
  1 13  1  0
  2 14  1  1
  3 15  1  0
  3 16  1  0
  5 17  1  0
  7 18  1  0
  8 19  1  0
 11 20  1  0
M  END
$$$$

     RDKit          3D

 20 20  0  0  0  0  0  0  0  0999 V2000
   -2.2320   -1.2154   -1.2171 N   0  0  0  0  0  0  0  0  0  0  0  0
   -1.3181   -0.6564   -0.2378 C   0  0  1  0  0  0  0  0  0  0  0  0
    0.0559   -0.6711   -0.8689 C   0  0  0  0  0  0  0  0  0  0  0  0
    1.1042   -0.1322    0.0027 C   0  0  0  0  0  0  0  0  0  0  0  0
    1.8707   -0.8529    0.9060 C   0  0  0  0  0  0  0  0  0  0  0  0
    2.7143   -0.0277    1.5140 N   0  0  0  0  0  0  0  0  0  0  0  0
    2.5284    1.1989    1.0439 C   0  0  0  0  0  0  0  0  0  0  0  0
    1.5490    1.1309    0.1257 N   0  0  0  0  0  0  0  0  0  0  0  0
   -1.7730    0.6748    0.1355 C   0  0  0  0  0  0  0  0  0  0  0  0
   -2.7998    1.1709   -0.3635 O   0  0  0  0  0  0  0  0  0  0  0  0
   -1.0593    1.4073    1.0587 O   0  0  0  0  0  0  0  0  0  0  0  0
   -2.1441   -2.2477   -1.3048 H   0  0  0  0  0  0  0  0  0  0  0  0
   -2.0490   -0.7496   -2.1357 H   0  0  0  0  0  0  0  0  0  0  0  0
   -1.3349   -1.3733    0.6256 H   0  0  0  0  0  0  0  0  0  0  0  0
    0.0087   -0.1831   -1.8706 H   0  0  0  0  0  0  0  0  0  0  0  0
    0.2792   -1.7525   -1.0810 H   0  0  0  0  0  0  0  0  0  0  0  0
    1.7950   -1.9166    1.0875 H   0  0  0  0  0  0  0  0  0  0  0  0
    3.0668    2.0997    1.3427 H   0  0  0  0  0  0  0  0  0  0  0  0
    1.2052    1.9638   -0.4010 H   0  0  0  0  0  0  0  0  0  0  0  0
   -1.4671    2.1323    1.6382 H   0  0  0  0  0  0  0  0  0  0  0  0
  1  2  1  0
  2  3  1  0
  3  4  1  0
  4  5  2  0
  5  6  1  0
  6  7  2  0
  7  8  1  0
  2  9  1  0
  9 10  2  0
  9 11  1  0
  8  4  1  0
  1 12  1  0
  1 13  1  0
  2 14  1  1
  3 15  1  0
  3 16  1  0
  5 17  1  0
  7 18  1  0
  8 19  1  0
 11 20  1  0
M  END
$$$$

     RDKit          3D

 20 20  0  0  0  0  0  0  0  0999 V2000
   -1.0516    0.6452   -1.5411 N   0  0  0  0  0  0  0  0  0  0  0  0
   -1.1447   -0.4547   -0.5877 C   0  0  1  0  0  0  0  0  0  0  0  0
   -0.1721   -0.1990    0.5191 C   0  0  0  0  0  0  0  0  0  0  0  0
    1.2281   -0.1109    0.0253 C   0  0  0  0  0  0  0  0  0  0  0  0
    1.6439   -0.2393   -1.2738 C   0  0  0  0  0  0  0  0  0  0  0  0
    2.9887   -0.0917   -1.2794 N   0  0  0  0  0  0  0  0  0  0  0  0
    3.4238    0.1250   -0.0216 C   0  0  0  0  0  0  0  0  0  0  0  0
    2.3329    0.1092    0.7569 N   0  0  0  0  0  0  0  0  0  0  0  0
   -2.5066   -0.5054   -0.0194 C   0  0  0  0  0  0  0  0  0  0  0  0
   -2.7975   -1.3865    0.8278 O   0  0  0  0  0  0  0  0  0  0  0  0
   -3.4692    0.3916   -0.3957 O   0  0  0  0  0  0  0  0  0  0  0  0
   -2.0066    0.9505   -1.7729 H   0  0  0  0  0  0  0  0  0  0  0  0
   -0.5396    1.4581   -1.1509 H   0  0  0  0  0  0  0  0  0  0  0  0
   -0.8530   -1.3890   -1.0930 H   0  0  0  0  0  0  0  0  0  0  0  0
   -0.2715   -0.9113    1.3584 H   0  0  0  0  0  0  0  0  0  0  0  0
   -0.4118    0.8076    0.9487 H   0  0  0  0  0  0  0  0  0  0  0  0
    1.0519   -0.4235   -2.1601 H   0  0  0  0  0  0  0  0  0  0  0  0
    4.4510    0.2778    0.2730 H   0  0  0  0  0  0  0  0  0  0  0  0
    2.3190    0.2459    1.7880 H   0  0  0  0  0  0  0  0  0  0  0  0
   -4.2152    0.7001    0.2386 H   0  0  0  0  0  0  0  0  0  0  0  0
  1  2  1  0
  2  3  1  0
  3  4  1  0
  4  5  2  0
  5  6  1  0
  6  7  2  0
  7  8  1  0
  2  9  1  0
  9 10  2  0
  9 11  1  0
  8  4  1  0
  1 12  1  0
  1 13  1  0
  2 14  1  6
  3 15  1  0
  3 16  1  0
  5 17  1  0
  7 18  1  0
  8 19  1  0
 11 20  1  0
M  END
$$$$

     RDKit          3D

 20 20  0  0  0  0  0  0  0  0999 V2000
   -1.3646    1.3205    0.5089 N   0  0  0  0  0  0  0  0  0  0  0  0
   -1.1454    0.6412   -0.7354 C   0  0  1  0  0  0  0  0  0  0  0  0
    0.3134    0.6703   -1.1299 C   0  0  0  0  0  0  0  0  0  0  0  0
    1.1812    0.0221   -0.1287 C   0  0  0  0  0  0  0  0  0  0  0  0
    1.5482   -1.3022   -0.0828 C   0  0  0  0  0  0  0  0  0  0  0  0
    2.3529   -1.4951    0.9924 N   0  0  0  0  0  0  0  0  0  0  0  0
    2.4920   -0.3211    1.6124 C   0  0  0  0  0  0  0  0  0  0  0  0
    1.7758    0.6008    0.9252 N   0  0  0  0  0  0  0  0  0  0  0  0
   -1.7052   -0.7211   -0.7196 C   0  0  0  0  0  0  0  0  0  0  0  0
   -1.6425   -1.5115   -1.6844 O   0  0  0  0  0  0  0  0  0  0  0  0
   -2.3421   -1.1594    0.4334 O   0  0  0  0  0  0  0  0  0  0  0  0
   -1.4717    0.6606    1.2996 H   0  0  0  0  0  0  0  0  0  0  0  0
   -2.2527    1.9014    0.4964 H   0  0  0  0  0  0  0  0  0  0  0  0
   -1.6939    1.2144   -1.5280 H   0  0  0  0  0  0  0  0  0  0  0  0
    0.4254    0.2380   -2.1478 H   0  0  0  0  0  0  0  0  0  0  0  0
    0.5731    1.7619   -1.2556 H   0  0  0  0  0  0  0  0  0  0  0  0
    1.2765   -2.1038   -0.7575 H   0  0  0  0  0  0  0  0  0  0  0  0
    3.0795   -0.1626    2.5051 H   0  0  0  0  0  0  0  0  0  0  0  0
    1.7075    1.5950    1.1856 H   0  0  0  0  0  0  0  0  0  0  0  0
   -3.1077   -1.8494    0.3921 H   0  0  0  0  0  0  0  0  0  0  0  0
  1  2  1  0
  2  3  1  0
  3  4  1  0
  4  5  2  0
  5  6  1  0
  6  7  2  0
  7  8  1  0
  2  9  1  0
  9 10  2  0
  9 11  1  0
  8  4  1  0
  1 12  1  0
  1 13  1  0
  2 14  1  6
  3 15  1  0
  3 16  1  0
  5 17  1  0
  7 18  1  0
  8 19  1  0
 11 20  1  0
M  END
$$$$

     RDKit          3D

 20 20  0  0  0  0  0  0  0  0999 V2000
   -2.3743   -0.8448   -1.1744 N   0  0  0  0  0  0  0  0  0  0  0  0
   -1.2648   -0.5094   -0.2681 C   0  0  1  0  0  0  0  0  0  0  0  0
   -0.0048   -0.6903   -1.0433 C   0  0  0  0  0  0  0  0  0  0  0  0
    1.2212   -0.4001   -0.3000 C   0  0  0  0  0  0  0  0  0  0  0  0
    1.9607   -1.2966    0.4474 C   0  0  0  0  0  0  0  0  0  0  0  0
    3.0156   -0.6383    0.9729 N   0  0  0  0  0  0  0  0  0  0  0  0
    2.9677    0.6298    0.5868 C   0  0  0  0  0  0  0  0  0  0  0  0
    1.8636    0.7697   -0.1946 N   0  0  0  0  0  0  0  0  0  0  0  0
   -1.5040    0.8421    0.2243 C   0  0  0  0  0  0  0  0  0  0  0  0
   -0.6776    1.3464    1.0225 O   0  0  0  0  0  0  0  0  0  0  0  0
   -2.5937    1.6175   -0.1324 O   0  0  0  0  0  0  0  0  0  0  0  0
   -2.4675   -0.0335   -1.8534 H   0  0  0  0  0  0  0  0  0  0  0  0
   -3.2519   -0.9940   -0.6416 H   0  0  0  0  0  0  0  0  0  0  0  0
   -1.3604   -1.2199    0.5866 H   0  0  0  0  0  0  0  0  0  0  0  0
   -0.1004   -0.1057   -1.9883 H   0  0  0  0  0  0  0  0  0  0  0  0
    0.0237   -1.7611   -1.3685 H   0  0  0  0  0  0  0  0  0  0  0  0
    1.7654   -2.3577    0.6123 H   0  0  0  0  0  0  0  0  0  0  0  0
    3.6913    1.3800    0.8639 H   0  0  0  0  0  0  0  0  0  0  0  0
    1.5612    1.6442   -0.6420 H   0  0  0  0  0  0  0  0  0  0  0  0
   -2.4709    2.6216   -0.1037 H   0  0  0  0  0  0  0  0  0  0  0  0
  1  2  1  0
  2  3  1  0
  3  4  1  0
  4  5  2  0
  5  6  1  0
  6  7  2  0
  7  8  1  0
  2  9  1  0
  9 10  2  0
  9 11  1  0
  8  4  1  0
  1 12  1  0
  1 13  1  0
  2 14  1  1
  3 15  1  0
  3 16  1  0
  5 17  1  0
  7 18  1  0
  8 19  1  0
 11 20  1  0
M  END
$$$$

     RDKit          3D

 20 20  0  0  0  0  0  0  0  0999 V2000
   -2.3533    1.5397    0.1643 N   0  0  0  0  0  0  0  0  0  0  0  0
   -1.3329    0.6085   -0.2770 C   0  0  1  0  0  0  0  0  0  0  0  0
   -0.0575    1.0073    0.4291 C   0  0  0  0  0  0  0  0  0  0  0  0
    1.0947    0.1743    0.1072 C   0  0  0  0  0  0  0  0  0  0  0  0
    1.9884    0.3887   -0.9168 C   0  0  0  0  0  0  0  0  0  0  0  0
    2.8996   -0.5915   -0.8808 N   0  0  0  0  0  0  0  0  0  0  0  0
    2.6120   -1.4226    0.1353 C   0  0  0  0  0  0  0  0  0  0  0  0
    1.4917   -0.9356    0.7380 N   0  0  0  0  0  0  0  0  0  0  0  0
   -1.7678   -0.7515    0.0592 C   0  0  0  0  0  0  0  0  0  0  0  0
   -2.8504   -0.9463    0.6333 O   0  0  0  0  0  0  0  0  0  0  0  0
   -0.9660   -1.8199   -0.2663 O   0  0  0  0  0  0  0  0  0  0  0  0
   -2.1572    2.4539   -0.2715 H   0  0  0  0  0  0  0  0  0  0  0  0
   -2.2313    1.6558    1.2038 H   0  0  0  0  0  0  0  0  0  0  0  0
   -1.1994    0.7318   -1.3710 H   0  0  0  0  0  0  0  0  0  0  0  0
   -0.2440    1.0865    1.5178 H   0  0  0  0  0  0  0  0  0  0  0  0
    0.1634    2.0598    0.0893 H   0  0  0  0  0  0  0  0  0  0  0  0
    1.9665    1.2113   -1.6375 H   0  0  0  0  0  0  0  0  0  0  0  0
    3.1804   -2.2872    0.3859 H   0  0  0  0  0  0  0  0  0  0  0  0
    1.0422   -1.3793    1.5562 H   0  0  0  0  0  0  0  0  0  0  0  0
   -1.2791   -2.7838   -0.2807 H   0  0  0  0  0  0  0  0  0  0  0  0
  1  2  1  0
  2  3  1  0
  3  4  1  0
  4  5  2  0
  5  6  1  0
  6  7  2  0
  7  8  1  0
  2  9  1  0
  9 10  2  0
  9 11  1  0
  8  4  1  0
  1 12  1  0
  1 13  1  0
  2 14  1  6
  3 15  1  0
  3 16  1  0
  5 17  1  0
  7 18  1  0
  8 19  1  0
 11 20  1  0
M  END
$$$$

     RDKit          3D

 20 20  0  0  0  0  0  0  0  0999 V2000
   -2.2323    1.4844    0.1007 N   0  0  0  0  0  0  0  0  0  0  0  0
   -1.0529    0.7327   -0.3249 C   0  0  1  0  0  0  0  0  0  0  0  0
   -0.1219    0.6081    0.8727 C   0  0  0  0  0  0  0  0  0  0  0  0
    1.1119   -0.1397    0.5571 C   0  0  0  0  0  0  0  0  0  0  0  0
    1.3334   -1.4945    0.6674 C   0  0  0  0  0  0  0  0  0  0  0  0
    2.5965   -1.7322    0.2701 N   0  0  0  0  0  0  0  0  0  0  0  0
    3.1876   -0.5850   -0.0883 C   0  0  0  0  0  0  0  0  0  0  0  0
    2.2796    0.3865    0.0876 N   0  0  0  0  0  0  0  0  0  0  0  0
   -1.5016   -0.5834   -0.8319 C   0  0  0  0  0  0  0  0  0  0  0  0
   -0.6723   -1.4181   -1.2770 O   0  0  0  0  0  0  0  0  0  0  0  0
   -2.8509   -0.9373   -0.8320 O   0  0  0  0  0  0  0  0  0  0  0  0
   -3.0392    1.3290   -0.5293 H   0  0  0  0  0  0  0  0  0  0  0  0
   -2.0015    2.4876    0.2394 H   0  0  0  0  0  0  0  0  0  0  0  0
   -0.5291    1.3006   -1.1311 H   0  0  0  0  0  0  0  0  0  0  0  0
   -0.6935    0.0769    1.6645 H   0  0  0  0  0  0  0  0  0  0  0  0
    0.0879    1.6192    1.2664 H   0  0  0  0  0  0  0  0  0  0  0  0
    0.5939   -2.2173    1.0195 H   0  0  0  0  0  0  0  0  0  0  0  0
    4.2021   -0.4250   -0.4555 H   0  0  0  0  0  0  0  0  0  0  0  0
    2.3801    1.4288   -0.0894 H   0  0  0  0  0  0  0  0  0  0  0  0
   -3.0779   -1.9215   -0.9958 H   0  0  0  0  0  0  0  0  0  0  0  0
  1  2  1  0
  2  3  1  0
  3  4  1  0
  4  5  2  0
  5  6  1  0
  6  7  2  0
  7  8  1  0
  2  9  1  0
  9 10  2  0
  9 11  1  0
  8  4  1  0
  1 12  1  0
  1 13  1  0
  2 14  1  6
  3 15  1  0
  3 16  1  0
  5 17  1  0
  7 18  1  0
  8 19  1  0
 11 20  1  0
M  END
$$$$

     RDKit          3D

 20 20  0  0  0  0  0  0  0  0999 V2000
   -0.8162    1.5893    1.0351 N   0  0  0  0  0  0  0  0  0  0  0  0
   -0.9977    0.6225    0.0053 C   0  0  1  0  0  0  0  0  0  0  0  0
   -0.2948   -0.6626    0.2005 C   0  0  0  0  0  0  0  0  0  0  0  0
    1.1566   -0.5824    0.3055 C   0  0  0  0  0  0  0  0  0  0  0  0
    1.9964   -1.6544    0.4884 C   0  0  0  0  0  0  0  0  0  0  0  0
    3.2539   -1.1896    0.5361 N   0  0  0  0  0  0  0  0  0  0  0  0
    3.2405    0.1416    0.3898 C   0  0  0  0  0  0  0  0  0  0  0  0
    1.9397    0.5039    0.2483 N   0  0  0  0  0  0  0  0  0  0  0  0
   -2.4650    0.3365   -0.1113 C   0  0  0  0  0  0  0  0  0  0  0  0
   -3.3166    0.9006    0.6167 O   0  0  0  0  0  0  0  0  0  0  0  0
   -2.9149   -0.5791   -1.0494 O   0  0  0  0  0  0  0  0  0  0  0  0
   -1.5714    2.3280    0.9087 H   0  0  0  0  0  0  0  0  0  0  0  0
   -1.0021    1.1857    1.9828 H   0  0  0  0  0  0  0  0  0  0  0  0
   -0.7034    1.0963   -0.9629 H   0  0  0  0  0  0  0  0  0  0  0  0
   -0.5644   -1.3459   -0.6299 H   0  0  0  0  0  0  0  0  0  0  0  0
   -0.6818   -1.1588    1.1282 H   0  0  0  0  0  0  0  0  0  0  0  0
    1.6981   -2.6929    0.5784 H   0  0  0  0  0  0  0  0  0  0  0  0
    4.1008    0.7957    0.3857 H   0  0  0  0  0  0  0  0  0  0  0  0
    1.6674    1.5046    0.1177 H   0  0  0  0  0  0  0  0  0  0  0  0
   -3.7251   -1.1389   -0.9241 H   0  0  0  0  0  0  0  0  0  0  0  0
  1  2  1  0
  2  3  1  0
  3  4  1  0
  4  5  2  0
  5  6  1  0
  6  7  2  0
  7  8  1  0
  2  9  1  0
  9 10  2  0
  9 11  1  0
  8  4  1  0
  1 12  1  0
  1 13  1  0
  2 14  1  6
  3 15  1  0
  3 16  1  0
  5 17  1  0
  7 18  1  0
  8 19  1  0
 11 20  1  0
M  END
$$$$

     RDKit          3D

 20 20  0  0  0  0  0  0  0  0999 V2000
    2.2417    0.9847   -1.3794 N   0  0  0  0  0  0  0  0  0  0  0  0
    1.2956    0.5247   -0.3938 C   0  0  1  0  0  0  0  0  0  0  0  0
   -0.0801    0.4587   -0.9968 C   0  0  0  0  0  0  0  0  0  0  0  0
   -1.1069   -0.0065   -0.0440 C   0  0  0  0  0  0  0  0  0  0  0  0
   -1.5244   -1.2961    0.1989 C   0  0  0  0  0  0  0  0  0  0  0  0
   -2.4696   -1.2385    1.1416 N   0  0  0  0  0  0  0  0  0  0  0  0
   -2.6462    0.0494    1.4862 C   0  0  0  0  0  0  0  0  0  0  0  0
   -1.8219    0.8012    0.7700 N   0  0  0  0  0  0  0  0  0  0  0  0
    1.7444   -0.7581    0.1847 C   0  0  0  0  0  0  0  0  0  0  0  0
    2.8105   -1.2809   -0.2279 O   0  0  0  0  0  0  0  0  0  0  0  0
    1.0509   -1.4357    1.1738 O   0  0  0  0  0  0  0  0  0  0  0  0
    2.2540    2.0248   -1.4621 H   0  0  0  0  0  0  0  0  0  0  0  0
    2.0619    0.5142   -2.2895 H   0  0  0  0  0  0  0  0  0  0  0  0
    1.2617    1.2895    0.4105 H   0  0  0  0  0  0  0  0  0  0  0  0
   -0.0740   -0.2238   -1.8836 H   0  0  0  0  0  0  0  0  0  0  0  0
   -0.3275    1.4940   -1.3354 H   0  0  0  0  0  0  0  0  0  0  0  0
   -1.1325   -2.1912   -0.3080 H   0  0  0  0  0  0  0  0  0  0  0  0
   -3.3644    0.3587    2.2375 H   0  0  0  0  0  0  0  0  0  0  0  0
   -1.7094    1.8528    0.7974 H   0  0  0  0  0  0  0  0  0  0  0  0
    1.5361   -1.9223    1.9200 H   0  0  0  0  0  0  0  0  0  0  0  0
  1  2  1  0
  2  3  1  0
  3  4  1  0
  4  5  2  0
  5  6  1  0
  6  7  2  0
  7  8  1  0
  2  9  1  0
  9 10  2  0
  9 11  1  0
  8  4  1  0
  1 12  1  0
  1 13  1  0
  2 14  1  1
  3 15  1  0
  3 16  1  0
  5 17  1  0
  7 18  1  0
  8 19  1  0
 11 20  1  0
M  END
$$$$

     RDKit          3D

 20 20  0  0  0  0  0  0  0  0999 V2000
   -1.0257   -0.0607   -1.4165 N   0  0  0  0  0  0  0  0  0  0  0  0
   -1.1198   -0.4587   -0.0336 C   0  0  1  0  0  0  0  0  0  0  0  0
   -0.1247    0.3902    0.7533 C   0  0  0  0  0  0  0  0  0  0  0  0
    1.2555    0.1934    0.2803 C   0  0  0  0  0  0  0  0  0  0  0  0
    1.8610    0.9429   -0.7248 C   0  0  0  0  0  0  0  0  0  0  0  0
    3.1102    0.4661   -0.8678 N   0  0  0  0  0  0  0  0  0  0  0  0
    3.3236   -0.5418   -0.0081 C   0  0  0  0  0  0  0  0  0  0  0  0
    2.1630   -0.6836    0.6828 N   0  0  0  0  0  0  0  0  0  0  0  0
   -2.4453   -0.1964    0.5475 C   0  0  0  0  0  0  0  0  0  0  0  0
   -2.6723   -0.4883    1.7317 O   0  0  0  0  0  0  0  0  0  0  0  0
   -3.4255    0.3712   -0.2257 O   0  0  0  0  0  0  0  0  0  0  0  0
   -1.6177    0.7732   -1.6090 H   0  0  0  0  0  0  0  0  0  0  0  0
   -1.2399   -0.8505   -2.0417 H   0  0  0  0  0  0  0  0  0  0  0  0
   -0.8587   -1.5352    0.0259 H   0  0  0  0  0  0  0  0  0  0  0  0
   -0.4286    1.4377    0.6851 H   0  0  0  0  0  0  0  0  0  0  0  0
   -0.2611    0.0810    1.8267 H   0  0  0  0  0  0  0  0  0  0  0  0
    1.4235    1.7553   -1.2906 H   0  0  0  0  0  0  0  0  0  0  0  0
    4.2440   -1.1035    0.0874 H   0  0  0  0  0  0  0  0  0  0  0  0
    2.0288   -1.3995    1.4303 H   0  0  0  0  0  0  0  0  0  0  0  0
   -4.1904    0.9072    0.1667 H   0  0  0  0  0  0  0  0  0  0  0  0
  1  2  1  0
  2  3  1  0
  3  4  1  0
  4  5  2  0
  5  6  1  0
  6  7  2  0
  7  8  1  0
  2  9  1  0
  9 10  2  0
  9 11  1  0
  8  4  1  0
  1 12  1  0
  1 13  1  0
  2 14  1  6
  3 15  1  0
  3 16  1  0
  5 17  1  0
  7 18  1  0
  8 19  1  0
 11 20  1  0
M  END
$$$$

     RDKit          3D

 20 20  0  0  0  0  0  0  0  0999 V2000
   -2.2961   -1.6468    0.2680 N   0  0  0  0  0  0  0  0  0  0  0  0
   -1.3205   -0.5706    0.3132 C   0  0  1  0  0  0  0  0  0  0  0  0
    0.0636   -1.1020    0.0244 C   0  0  0  0  0  0  0  0  0  0  0  0
    1.1074   -0.0885    0.0493 C   0  0  0  0  0  0  0  0  0  0  0  0
    1.5447    0.6657   -1.0130 C   0  0  0  0  0  0  0  0  0  0  0  0
    2.5355    1.5031   -0.5840 N   0  0  0  0  0  0  0  0  0  0  0  0
    2.6971    1.2579    0.7285 C   0  0  0  0  0  0  0  0  0  0  0  0
    1.8295    0.2916    1.1114 N   0  0  0  0  0  0  0  0  0  0  0  0
   -1.7350    0.5285   -0.5694 C   0  0  0  0  0  0  0  0  0  0  0  0
   -2.7973    0.4353   -1.2292 O   0  0  0  0  0  0  0  0  0  0  0  0
   -0.9979    1.6887   -0.7147 O   0  0  0  0  0  0  0  0  0  0  0  0
   -2.6621   -1.6928   -0.7083 H   0  0  0  0  0  0  0  0  0  0  0  0
   -1.8023   -2.5252    0.5614 H   0  0  0  0  0  0  0  0  0  0  0  0
   -1.3666   -0.1713    1.3683 H   0  0  0  0  0  0  0  0  0  0  0  0
    0.2440   -1.9205    0.7551 H   0  0  0  0  0  0  0  0  0  0  0  0
   -0.0090   -1.6281   -0.9735 H   0  0  0  0  0  0  0  0  0  0  0  0
    1.2278    0.6737   -2.0480 H   0  0  0  0  0  0  0  0  0  0  0  0
    3.4018    1.7494    1.3729 H   0  0  0  0  0  0  0  0  0  0  0  0
    1.7837   -0.0583    2.1044 H   0  0  0  0  0  0  0  0  0  0  0  0
   -1.4486    2.6104   -0.8167 H   0  0  0  0  0  0  0  0  0  0  0  0
  1  2  1  0
  2  3  1  0
  3  4  1  0
  4  5  2  0
  5  6  1  0
  6  7  2  0
  7  8  1  0
  2  9  1  0
  9 10  2  0
  9 11  1  0
  8  4  1  0
  1 12  1  0
  1 13  1  0
  2 14  1  1
  3 15  1  0
  3 16  1  0
  5 17  1  0
  7 18  1  0
  8 19  1  0
 11 20  1  0
M  END
$$$$

     RDKit          3D

 20 20  0  0  0  0  0  0  0  0999 V2000
   -2.5210   -1.1436   -0.5499 N   0  0  0  0  0  0  0  0  0  0  0  0
   -1.2957   -0.5501    0.0192 C   0  0  1  0  0  0  0  0  0  0  0  0
   -0.1562   -0.6907   -0.9409 C   0  0  0  0  0  0  0  0  0  0  0  0
    1.0721   -0.0999   -0.3774 C   0  0  0  0  0  0  0  0  0  0  0  0
    1.5614    1.1787   -0.5236 C   0  0  0  0  0  0  0  0  0  0  0  0
    2.7099    1.2778    0.1713 N   0  0  0  0  0  0  0  0  0  0  0  0
    2.9660    0.1134    0.7504 C   0  0  0  0  0  0  0  0  0  0  0  0
    1.9809   -0.7308    0.4260 N   0  0  0  0  0  0  0  0  0  0  0  0
   -1.5815    0.8735    0.2421 C   0  0  0  0  0  0  0  0  0  0  0  0
   -2.6504    1.3855   -0.1774 O   0  0  0  0  0  0  0  0  0  0  0  0
   -0.6873    1.6841    0.9182 O   0  0  0  0  0  0  0  0  0  0  0  0
   -3.2960   -0.7592    0.0586 H   0  0  0  0  0  0  0  0  0  0  0  0
   -2.5353   -2.1662   -0.4432 H   0  0  0  0  0  0  0  0  0  0  0  0
   -1.0711   -1.0774    0.9799 H   0  0  0  0  0  0  0  0  0  0  0  0
   -0.3721   -0.1408   -1.8894 H   0  0  0  0  0  0  0  0  0  0  0  0
    0.0744   -1.7632   -1.1418 H   0  0  0  0  0  0  0  0  0  0  0  0
    1.1145    1.9900   -1.1026 H   0  0  0  0  0  0  0  0  0  0  0  0
    3.8170   -0.1021    1.3685 H   0  0  0  0  0  0  0  0  0  0  0  0
    1.8609   -1.7264    0.7056 H   0  0  0  0  0  0  0  0  0  0  0  0
   -0.9905    2.4474    1.5064 H   0  0  0  0  0  0  0  0  0  0  0  0
  1  2  1  0
  2  3  1  0
  3  4  1  0
  4  5  2  0
  5  6  1  0
  6  7  2  0
  7  8  1  0
  2  9  1  0
  9 10  2  0
  9 11  1  0
  8  4  1  0
  1 12  1  0
  1 13  1  0
  2 14  1  1
  3 15  1  0
  3 16  1  0
  5 17  1  0
  7 18  1  0
  8 19  1  0
 11 20  1  0
M  END
$$$$

     RDKit          3D

 20 20  0  0  0  0  0  0  0  0999 V2000
    0.9780   -1.3685   -0.2094 N   0  0  0  0  0  0  0  0  0  0  0  0
    1.0865    0.0328   -0.5200 C   0  0  1  0  0  0  0  0  0  0  0  0
    0.1239    0.8356    0.3499 C   0  0  0  0  0  0  0  0  0  0  0  0
   -1.2706    0.4120    0.1203 C   0  0  0  0  0  0  0  0  0  0  0  0
   -2.1444    0.9186   -0.7993 C   0  0  0  0  0  0  0  0  0  0  0  0
   -3.3030    0.2250   -0.6469 N   0  0  0  0  0  0  0  0  0  0  0  0
   -3.1701   -0.6754    0.3202 C   0  0  0  0  0  0  0  0  0  0  0  0
   -1.9260   -0.5651    0.7940 N   0  0  0  0  0  0  0  0  0  0  0  0
    2.4451    0.5318   -0.2321 C   0  0  0  0  0  0  0  0  0  0  0  0
    2.7364    1.7397   -0.4400 O   0  0  0  0  0  0  0  0  0  0  0  0
    3.3850   -0.3536    0.2684 O   0  0  0  0  0  0  0  0  0  0  0  0
    1.6320   -1.6613    0.5531 H   0  0  0  0  0  0  0  0  0  0  0  0
    1.1524   -1.9612   -1.0485 H   0  0  0  0  0  0  0  0  0  0  0  0
    0.8632    0.1905   -1.5950 H   0  0  0  0  0  0  0  0  0  0  0  0
    0.4054    0.6321    1.3932 H   0  0  0  0  0  0  0  0  0  0  0  0
    0.2622    1.9153    0.1282 H   0  0  0  0  0  0  0  0  0  0  0  0
   -1.9778    1.7114   -1.5175 H   0  0  0  0  0  0  0  0  0  0  0  0
   -3.9101   -1.3901    0.6906 H   0  0  0  0  0  0  0  0  0  0  0  0
   -1.5418   -1.1586    1.5708 H   0  0  0  0  0  0  0  0  0  0  0  0
    4.1737   -0.0111    0.8201 H   0  0  0  0  0  0  0  0  0  0  0  0
  1  2  1  0
  2  3  1  0
  3  4  1  0
  4  5  2  0
  5  6  1  0
  6  7  2  0
  7  8  1  0
  2  9  1  0
  9 10  2  0
  9 11  1  0
  8  4  1  0
  1 12  1  0
  1 13  1  0
  2 14  1  6
  3 15  1  0
  3 16  1  0
  5 17  1  0
  7 18  1  0
  8 19  1  0
 11 20  1  0
M  END
$$$$

     RDKit          3D

 20 20  0  0  0  0  0  0  0  0999 V2000
   -2.4519   -1.1650   -0.3163 N   0  0  0  0  0  0  0  0  0  0  0  0
   -1.2536   -0.5812    0.3061 C   0  0  1  0  0  0  0  0  0  0  0  0
   -0.1416   -0.7383   -0.7047 C   0  0  0  0  0  0  0  0  0  0  0  0
    1.1457   -0.2036   -0.2463 C   0  0  0  0  0  0  0  0  0  0  0  0
    2.1180   -0.9177    0.4514 C   0  0  0  0  0  0  0  0  0  0  0  0
    3.1612   -0.1344    0.7127 N   0  0  0  0  0  0  0  0  0  0  0  0
    2.8928    1.0730    0.2024 C   0  0  0  0  0  0  0  0  0  0  0  0
    1.6613    1.0303   -0.3835 N   0  0  0  0  0  0  0  0  0  0  0  0
   -1.5026    0.8171    0.6849 C   0  0  0  0  0  0  0  0  0  0  0  0
   -0.5677    1.4536    1.2321 O   0  0  0  0  0  0  0  0  0  0  0  0
   -2.7274    1.4546    0.4603 O   0  0  0  0  0  0  0  0  0  0  0  0
   -2.3190   -2.2036   -0.2537 H   0  0  0  0  0  0  0  0  0  0  0  0
   -2.4850   -0.8146   -1.2834 H   0  0  0  0  0  0  0  0  0  0  0  0
   -0.9895   -1.1944    1.1981 H   0  0  0  0  0  0  0  0  0  0  0  0
   -0.0628   -1.8247   -0.9243 H   0  0  0  0  0  0  0  0  0  0  0  0
   -0.4612   -0.2718   -1.6800 H   0  0  0  0  0  0  0  0  0  0  0  0
    2.0398   -1.9580    0.7405 H   0  0  0  0  0  0  0  0  0  0  0  0
    3.5574    1.9199    0.2595 H   0  0  0  0  0  0  0  0  0  0  0  0
    1.1741    1.8086   -0.8654 H   0  0  0  0  0  0  0  0  0  0  0  0
   -2.7880    2.4504    0.6678 H   0  0  0  0  0  0  0  0  0  0  0  0
  1  2  1  0
  2  3  1  0
  3  4  1  0
  4  5  2  0
  5  6  1  0
  6  7  2  0
  7  8  1  0
  2  9  1  0
  9 10  2  0
  9 11  1  0
  8  4  1  0
  1 12  1  0
  1 13  1  0
  2 14  1  1
  3 15  1  0
  3 16  1  0
  5 17  1  0
  7 18  1  0
  8 19  1  0
 11 20  1  0
M  END
$$$$

     RDKit          3D

 20 20  0  0  0  0  0  0  0  0999 V2000
   -1.7146   -0.7818   -1.9124 N   0  0  0  0  0  0  0  0  0  0  0  0
   -0.9580   -0.6201   -0.6759 C   0  0  1  0  0  0  0  0  0  0  0  0
    0.3542    0.0078   -1.0293 C   0  0  0  0  0  0  0  0  0  0  0  0
    1.2375    0.2352    0.1409 C   0  0  0  0  0  0  0  0  0  0  0  0
    1.3267    1.3438    0.9549 C   0  0  0  0  0  0  0  0  0  0  0  0
    2.2715    1.0686    1.8770 N   0  0  0  0  0  0  0  0  0  0  0  0
    2.7660   -0.1683    1.6593 C   0  0  0  0  0  0  0  0  0  0  0  0
    2.1266   -0.6593    0.6013 N   0  0  0  0  0  0  0  0  0  0  0  0
   -1.7155    0.1883    0.2851 C   0  0  0  0  0  0  0  0  0  0  0  0
   -1.2407    0.4296    1.4051 O   0  0  0  0  0  0  0  0  0  0  0  0
   -2.9804    0.7174    0.0003 O   0  0  0  0  0  0  0  0  0  0  0  0
   -2.1268    0.1605   -2.1151 H   0  0  0  0  0  0  0  0  0  0  0  0
   -2.5116   -1.4325   -1.8102 H   0  0  0  0  0  0  0  0  0  0  0  0
   -0.8185   -1.6396   -0.2661 H   0  0  0  0  0  0  0  0  0  0  0  0
    0.1398    1.0019   -1.4737 H   0  0  0  0  0  0  0  0  0  0  0  0
    0.9020   -0.6441   -1.7375 H   0  0  0  0  0  0  0  0  0  0  0  0
    0.7444    2.2435    0.8532 H   0  0  0  0  0  0  0  0  0  0  0  0
    3.5479   -0.6271    2.2744 H   0  0  0  0  0  0  0  0  0  0  0  0
    2.3219   -1.6233    0.2107 H   0  0  0  0  0  0  0  0  0  0  0  0
   -3.6722    0.7996    0.7580 H   0  0  0  0  0  0  0  0  0  0  0  0
  1  2  1  0
  2  3  1  0
  3  4  1  0
  4  5  2  0
  5  6  1  0
  6  7  2  0
  7  8  1  0
  2  9  1  0
  9 10  2  0
  9 11  1  0
  8  4  1  0
  1 12  1  0
  1 13  1  0
  2 14  1  1
  3 15  1  0
  3 16  1  0
  5 17  1  0
  7 18  1  0
  8 19  1  0
 11 20  1  0
M  END
$$$$

     RDKit          3D

 20 20  0  0  0  0  0  0  0  0999 V2000
   -1.0287   -1.3480   -0.9577 N   0  0  0  0  0  0  0  0  0  0  0  0
   -1.2414   -0.3382    0.0270 C   0  0  1  0  0  0  0  0  0  0  0  0
   -0.2050    0.7434    0.0290 C   0  0  0  0  0  0  0  0  0  0  0  0
    1.1566    0.2736    0.2816 C   0  0  0  0  0  0  0  0  0  0  0  0
    1.7482    0.1618    1.5207 C   0  0  0  0  0  0  0  0  0  0  0  0
    3.0062   -0.3045    1.3603 N   0  0  0  0  0  0  0  0  0  0  0  0
    3.1877   -0.4779    0.0386 C   0  0  0  0  0  0  0  0  0  0  0  0
    2.0636   -0.1274   -0.6264 N   0  0  0  0  0  0  0  0  0  0  0  0
   -2.5598    0.3178   -0.2709 C   0  0  0  0  0  0  0  0  0  0  0  0
   -3.2736   -0.0403   -1.2473 O   0  0  0  0  0  0  0  0  0  0  0  0
   -3.0525    1.3468    0.5135 O   0  0  0  0  0  0  0  0  0  0  0  0
   -0.0751   -1.3829   -1.3535 H   0  0  0  0  0  0  0  0  0  0  0  0
   -1.4085   -2.2822   -0.6975 H   0  0  0  0  0  0  0  0  0  0  0  0
   -1.3558   -0.8041    1.0191 H   0  0  0  0  0  0  0  0  0  0  0  0
   -0.2555    1.2502   -0.9761 H   0  0  0  0  0  0  0  0  0  0  0  0
   -0.5438    1.5219    0.7598 H   0  0  0  0  0  0  0  0  0  0  0  0
    1.3396    0.3886    2.4950 H   0  0  0  0  0  0  0  0  0  0  0  0
    4.1156   -0.8462   -0.3777 H   0  0  0  0  0  0  0  0  0  0  0  0
    1.9792   -0.1819   -1.6643 H   0  0  0  0  0  0  0  0  0  0  0  0
   -3.5972    2.1294    0.1270 H   0  0  0  0  0  0  0  0  0  0  0  0
  1  2  1  0
  2  3  1  0
  3  4  1  0
  4  5  2  0
  5  6  1  0
  6  7  2  0
  7  8  1  0
  2  9  1  0
  9 10  2  0
  9 11  1  0
  8  4  1  0
  1 12  1  0
  1 13  1  0
  2 14  1  1
  3 15  1  0
  3 16  1  0
  5 17  1  0
  7 18  1  0
  8 19  1  0
 11 20  1  0
M  END
$$$$

     RDKit          3D

 20 20  0  0  0  0  0  0  0  0999 V2000
   -1.1062   -0.8349    1.3562 N   0  0  0  0  0  0  0  0  0  0  0  0
   -1.0850    0.2598    0.4297 C   0  0  1  0  0  0  0  0  0  0  0  0
   -0.1564   -0.0071   -0.7438 C   0  0  0  0  0  0  0  0  0  0  0  0
    1.2109   -0.2140   -0.2198 C   0  0  0  0  0  0  0  0  0  0  0  0
    1.7843   -1.3933    0.1624 C   0  0  0  0  0  0  0  0  0  0  0  0
    3.0398   -1.1325    0.5765 N   0  0  0  0  0  0  0  0  0  0  0  0
    3.2677    0.2034    0.4602 C   0  0  0  0  0  0  0  0  0  0  0  0
    2.1332    0.7374   -0.0285 N   0  0  0  0  0  0  0  0  0  0  0  0
   -2.4658    0.5508   -0.0320 C   0  0  0  0  0  0  0  0  0  0  0  0
   -3.4073   -0.1264    0.3969 O   0  0  0  0  0  0  0  0  0  0  0  0
   -2.7219    1.5619   -0.9304 O   0  0  0  0  0  0  0  0  0  0  0  0
   -2.0048   -0.9224    1.8781 H   0  0  0  0  0  0  0  0  0  0  0  0
   -0.8845   -1.7086    0.8284 H   0  0  0  0  0  0  0  0  0  0  0  0
   -0.6981    1.1527    0.9992 H   0  0  0  0  0  0  0  0  0  0  0  0
   -0.2085    0.8211   -1.4519 H   0  0  0  0  0  0  0  0  0  0  0  0
   -0.5274   -0.9469   -1.2240 H   0  0  0  0  0  0  0  0  0  0  0  0
    1.3201   -2.3658    0.1395 H   0  0  0  0  0  0  0  0  0  0  0  0
    4.1676    0.7590    0.7022 H   0  0  0  0  0  0  0  0  0  0  0  0
    1.9905    1.7489   -0.2303 H   0  0  0  0  0  0  0  0  0  0  0  0
   -3.6484    1.8569   -1.2229 H   0  0  0  0  0  0  0  0  0  0  0  0
  1  2  1  0
  2  3  1  0
  3  4  1  0
  4  5  2  0
  5  6  1  0
  6  7  2  0
  7  8  1  0
  2  9  1  0
  9 10  2  0
  9 11  1  0
  8  4  1  0
  1 12  1  0
  1 13  1  0
  2 14  1  1
  3 15  1  0
  3 16  1  0
  5 17  1  0
  7 18  1  0
  8 19  1  0
 11 20  1  0
M  END
$$$$

     RDKit          3D

 20 20  0  0  0  0  0  0  0  0999 V2000
    2.4413   -0.1685   -1.0472 N   0  0  0  0  0  0  0  0  0  0  0  0
    1.1705    0.3541   -0.5079 C   0  0  1  0  0  0  0  0  0  0  0  0
    0.1875   -0.7559   -0.6365 C   0  0  0  0  0  0  0  0  0  0  0  0
   -1.1875   -0.4293   -0.2063 C   0  0  0  0  0  0  0  0  0  0  0  0
   -2.1754   -1.4069   -0.0418 C   0  0  0  0  0  0  0  0  0  0  0  0
   -3.3135   -0.8113    0.3098 N   0  0  0  0  0  0  0  0  0  0  0  0
   -3.0579    0.4974    0.3663 C   0  0  0  0  0  0  0  0  0  0  0  0
   -1.7736    0.7516    0.0561 N   0  0  0  0  0  0  0  0  0  0  0  0
    1.4188    0.7133    0.9349 C   0  0  0  0  0  0  0  0  0  0  0  0
    0.5531    1.1283    1.7204 O   0  0  0  0  0  0  0  0  0  0  0  0
    2.7068    0.5859    1.4755 O   0  0  0  0  0  0  0  0  0  0  0  0
    3.2392    0.1200   -0.4662 H   0  0  0  0  0  0  0  0  0  0  0  0
    2.5320    0.0424   -2.0568 H   0  0  0  0  0  0  0  0  0  0  0  0
    0.9059    1.2277   -1.0698 H   0  0  0  0  0  0  0  0  0  0  0  0
    0.5163   -1.6710   -0.0573 H   0  0  0  0  0  0  0  0  0  0  0  0
    0.1715   -1.0676   -1.7232 H   0  0  0  0  0  0  0  0  0  0  0  0
   -2.0438   -2.4705   -0.1762 H   0  0  0  0  0  0  0  0  0  0  0  0
   -3.7935    1.2358    0.6271 H   0  0  0  0  0  0  0  0  0  0  0  0
   -1.3451    1.7065    0.0170 H   0  0  0  0  0  0  0  0  0  0  0  0
    2.8474    0.4180    2.4821 H   0  0  0  0  0  0  0  0  0  0  0  0
  1  2  1  0
  2  3  1  0
  3  4  1  0
  4  5  2  0
  5  6  1  0
  6  7  2  0
  7  8  1  0
  2  9  1  0
  9 10  2  0
  9 11  1  0
  8  4  1  0
  1 12  1  0
  1 13  1  0
  2 14  1  6
  3 15  1  0
  3 16  1  0
  5 17  1  0
  7 18  1  0
  8 19  1  0
 11 20  1  0
M  END
$$$$

     RDKit          3D

 20 20  0  0  0  0  0  0  0  0999 V2000
   -2.2069   -1.7957   -0.3117 N   0  0  0  0  0  0  0  0  0  0  0  0
   -1.2439   -0.8090    0.1177 C   0  0  1  0  0  0  0  0  0  0  0  0
    0.1177   -1.0527   -0.4844 C   0  0  0  0  0  0  0  0  0  0  0  0
    1.1357   -0.0608   -0.0717 C   0  0  0  0  0  0  0  0  0  0  0  0
    1.9563   -0.1440    1.0343 C   0  0  0  0  0  0  0  0  0  0  0  0
    2.7348    0.9649    1.0299 N   0  0  0  0  0  0  0  0  0  0  0  0
    2.4355    1.7292   -0.0247 C   0  0  0  0  0  0  0  0  0  0  0  0
    1.4448    1.0746   -0.6903 N   0  0  0  0  0  0  0  0  0  0  0  0
   -1.7212    0.5678   -0.0483 C   0  0  0  0  0  0  0  0  0  0  0  0
   -2.8592    0.7897   -0.5673 O   0  0  0  0  0  0  0  0  0  0  0  0
   -0.9457    1.6422    0.3555 O   0  0  0  0  0  0  0  0  0  0  0  0
   -3.0023   -1.8723    0.3644 H   0  0  0  0  0  0  0  0  0  0  0  0
   -1.7653   -2.7173   -0.4536 H   0  0  0  0  0  0  0  0  0  0  0  0
   -1.1175   -0.9714    1.2289 H   0  0  0  0  0  0  0  0  0  0  0  0
    0.0656   -0.9873   -1.6101 H   0  0  0  0  0  0  0  0  0  0  0  0
    0.4597   -2.0781   -0.2732 H   0  0  0  0  0  0  0  0  0  0  0  0
    2.0052   -0.9199    1.7841 H   0  0  0  0  0  0  0  0  0  0  0  0
    2.8412    2.6698   -0.3487 H   0  0  0  0  0  0  0  0  0  0  0  0
    0.9885    1.4107   -1.5661 H   0  0  0  0  0  0  0  0  0  0  0  0
   -1.3229    2.5597    0.5354 H   0  0  0  0  0  0  0  0  0  0  0  0
  1  2  1  0
  2  3  1  0
  3  4  1  0
  4  5  2  0
  5  6  1  0
  6  7  2  0
  7  8  1  0
  2  9  1  0
  9 10  2  0
  9 11  1  0
  8  4  1  0
  1 12  1  0
  1 13  1  0
  2 14  1  1
  3 15  1  0
  3 16  1  0
  5 17  1  0
  7 18  1  0
  8 19  1  0
 11 20  1  0
M  END
$$$$

     RDKit          3D

 20 20  0  0  0  0  0  0  0  0999 V2000
   -2.5927   -1.1308   -0.2412 N   0  0  0  0  0  0  0  0  0  0  0  0
   -1.4353   -0.3670    0.1124 C   0  0  1  0  0  0  0  0  0  0  0  0
   -0.1742   -1.1385   -0.1644 C   0  0  0  0  0  0  0  0  0  0  0  0
    1.0521   -0.3778    0.1875 C   0  0  0  0  0  0  0  0  0  0  0  0
    1.6942   -0.3657    1.4064 C   0  0  0  0  0  0  0  0  0  0  0  0
    2.7572    0.4398    1.3048 N   0  0  0  0  0  0  0  0  0  0  0  0
    2.7759    0.9171    0.0533 C   0  0  0  0  0  0  0  0  0  0  0  0
    1.7439    0.4308   -0.6460 N   0  0  0  0  0  0  0  0  0  0  0  0
   -1.4515    0.9864   -0.4757 C   0  0  0  0  0  0  0  0  0  0  0  0
   -2.4063    1.3357   -1.2166 O   0  0  0  0  0  0  0  0  0  0  0  0
   -0.4484    1.9161   -0.2505 O   0  0  0  0  0  0  0  0  0  0  0  0
   -2.3914   -2.0279   -0.7035 H   0  0  0  0  0  0  0  0  0  0  0  0
   -3.3406   -1.1429    0.4625 H   0  0  0  0  0  0  0  0  0  0  0  0
   -1.4754   -0.2205    1.2284 H   0  0  0  0  0  0  0  0  0  0  0  0
   -0.1732   -2.0799    0.4197 H   0  0  0  0  0  0  0  0  0  0  0  0
   -0.1120   -1.4240   -1.2482 H   0  0  0  0  0  0  0  0  0  0  0  0
    1.4204   -0.8969    2.3057 H   0  0  0  0  0  0  0  0  0  0  0  0
    3.5516    1.6068   -0.2955 H   0  0  0  0  0  0  0  0  0  0  0  0
    1.5241    0.6473   -1.6643 H   0  0  0  0  0  0  0  0  0  0  0  0
   -0.5185    2.8922   -0.5748 H   0  0  0  0  0  0  0  0  0  0  0  0
  1  2  1  0
  2  3  1  0
  3  4  1  0
  4  5  2  0
  5  6  1  0
  6  7  2  0
  7  8  1  0
  2  9  1  0
  9 10  2  0
  9 11  1  0
  8  4  1  0
  1 12  1  0
  1 13  1  0
  2 14  1  1
  3 15  1  0
  3 16  1  0
  5 17  1  0
  7 18  1  0
  8 19  1  0
 11 20  1  0
M  END
$$$$

     RDKit          3D

 20 20  0  0  0  0  0  0  0  0999 V2000
   -2.6051   -0.7299    0.0832 N   0  0  0  0  0  0  0  0  0  0  0  0
   -1.3175   -0.0731    0.2396 C   0  0  1  0  0  0  0  0  0  0  0  0
   -0.2444   -1.0115   -0.1978 C   0  0  0  0  0  0  0  0  0  0  0  0
    1.1119   -0.4367   -0.0762 C   0  0  0  0  0  0  0  0  0  0  0  0
    1.8230    0.2536   -1.0187 C   0  0  0  0  0  0  0  0  0  0  0  0
    2.9934    0.5861   -0.4891 N   0  0  0  0  0  0  0  0  0  0  0  0
    3.0463    0.1246    0.7686 C   0  0  0  0  0  0  0  0  0  0  0  0
    1.8950   -0.5038    1.0278 N   0  0  0  0  0  0  0  0  0  0  0  0
   -1.2394    1.1991   -0.4695 C   0  0  0  0  0  0  0  0  0  0  0  0
   -0.2140    1.9133   -0.3494 O   0  0  0  0  0  0  0  0  0  0  0  0
   -2.2434    1.6989   -1.2943 O   0  0  0  0  0  0  0  0  0  0  0  0
   -2.4412   -1.7598    0.1535 H   0  0  0  0  0  0  0  0  0  0  0  0
   -3.2260   -0.5052    0.9180 H   0  0  0  0  0  0  0  0  0  0  0  0
   -1.1804    0.1117    1.3311 H   0  0  0  0  0  0  0  0  0  0  0  0
   -0.3980   -1.4073   -1.2255 H   0  0  0  0  0  0  0  0  0  0  0  0
   -0.2803   -1.8990    0.4947 H   0  0  0  0  0  0  0  0  0  0  0  0
    1.5046    0.4945   -2.0209 H   0  0  0  0  0  0  0  0  0  0  0  0
    3.8574    0.2210    1.4827 H   0  0  0  0  0  0  0  0  0  0  0  0
    1.5852   -0.9859    1.9082 H   0  0  0  0  0  0  0  0  0  0  0  0
   -2.4270    2.7092   -1.2658 H   0  0  0  0  0  0  0  0  0  0  0  0
  1  2  1  0
  2  3  1  0
  3  4  1  0
  4  5  2  0
  5  6  1  0
  6  7  2  0
  7  8  1  0
  2  9  1  0
  9 10  2  0
  9 11  1  0
  8  4  1  0
  1 12  1  0
  1 13  1  0
  2 14  1  1
  3 15  1  0
  3 16  1  0
  5 17  1  0
  7 18  1  0
  8 19  1  0
 11 20  1  0
M  END
$$$$

     RDKit          3D

 20 20  0  0  0  0  0  0  0  0999 V2000
   -2.4280   -1.0553   -0.9324 N   0  0  0  0  0  0  0  0  0  0  0  0
   -1.3619   -0.5898   -0.0729 C   0  0  1  0  0  0  0  0  0  0  0  0
   -0.0763   -0.7758   -0.8361 C   0  0  0  0  0  0  0  0  0  0  0  0
    1.1273   -0.3415   -0.0901 C   0  0  0  0  0  0  0  0  0  0  0  0
    1.8876   -1.1338    0.7634 C   0  0  0  0  0  0  0  0  0  0  0  0
    2.9085   -0.4119    1.2621 N   0  0  0  0  0  0  0  0  0  0  0  0
    2.7945    0.8132    0.7330 C   0  0  0  0  0  0  0  0  0  0  0  0
    1.7136    0.8650   -0.0910 N   0  0  0  0  0  0  0  0  0  0  0  0
   -1.5660    0.8408    0.2272 C   0  0  0  0  0  0  0  0  0  0  0  0
   -2.5419    1.4322   -0.2907 O   0  0  0  0  0  0  0  0  0  0  0  0
   -0.7330    1.5754    1.0574 O   0  0  0  0  0  0  0  0  0  0  0  0
   -2.2493   -0.7214   -1.9134 H   0  0  0  0  0  0  0  0  0  0  0  0
   -3.3709   -0.7198   -0.5932 H   0  0  0  0  0  0  0  0  0  0  0  0
   -1.4046   -1.2144    0.8409 H   0  0  0  0  0  0  0  0  0  0  0  0
    0.0226   -1.8654   -1.1146 H   0  0  0  0  0  0  0  0  0  0  0  0
   -0.1664   -0.2468   -1.8080 H   0  0  0  0  0  0  0  0  0  0  0  0
    1.6765   -2.1758    0.9838 H   0  0  0  0  0  0  0  0  0  0  0  0
    3.4595    1.6323    0.9314 H   0  0  0  0  0  0  0  0  0  0  0  0
    1.4268    1.7129   -0.6146 H   0  0  0  0  0  0  0  0  0  0  0  0
   -1.1185    2.3800    1.5577 H   0  0  0  0  0  0  0  0  0  0  0  0
  1  2  1  0
  2  3  1  0
  3  4  1  0
  4  5  2  0
  5  6  1  0
  6  7  2  0
  7  8  1  0
  2  9  1  0
  9 10  2  0
  9 11  1  0
  8  4  1  0
  1 12  1  0
  1 13  1  0
  2 14  1  1
  3 15  1  0
  3 16  1  0
  5 17  1  0
  7 18  1  0
  8 19  1  0
 11 20  1  0
M  END
$$$$

     RDKit          3D

 20 20  0  0  0  0  0  0  0  0999 V2000
   -1.0400   -1.5983    0.2087 N   0  0  0  0  0  0  0  0  0  0  0  0
   -1.1590   -0.1668    0.2951 C   0  0  1  0  0  0  0  0  0  0  0  0
   -0.1595    0.5193   -0.6053 C   0  0  0  0  0  0  0  0  0  0  0  0
    1.2364    0.1931   -0.2773 C   0  0  0  0  0  0  0  0  0  0  0  0
    1.9383   -0.8605   -0.8171 C   0  0  0  0  0  0  0  0  0  0  0  0
    3.1850   -0.8566   -0.2903 N   0  0  0  0  0  0  0  0  0  0  0  0
    3.2534    0.1808    0.5600 C   0  0  0  0  0  0  0  0  0  0  0  0
    2.0770    0.8326    0.5821 N   0  0  0  0  0  0  0  0  0  0  0  0
   -2.5166    0.2453   -0.1795 C   0  0  0  0  0  0  0  0  0  0  0  0
   -3.3778   -0.5531   -0.5775 O   0  0  0  0  0  0  0  0  0  0  0  0
   -2.8208    1.5922   -0.1711 O   0  0  0  0  0  0  0  0  0  0  0  0
   -1.9873   -2.0426    0.3594 H   0  0  0  0  0  0  0  0  0  0  0  0
   -0.6524   -1.9337   -0.6931 H   0  0  0  0  0  0  0  0  0  0  0  0
   -1.0142    0.2012    1.3434 H   0  0  0  0  0  0  0  0  0  0  0  0
   -0.3840    0.1921   -1.6488 H   0  0  0  0  0  0  0  0  0  0  0  0
   -0.3184    1.6181   -0.5280 H   0  0  0  0  0  0  0  0  0  0  0  0
    1.5629   -1.5836   -1.5474 H   0  0  0  0  0  0  0  0  0  0  0  0
    4.1414    0.4292    1.1297 H   0  0  0  0  0  0  0  0  0  0  0  0
    1.7973    1.6735    1.1308 H   0  0  0  0  0  0  0  0  0  0  0  0
   -3.7616    1.9178   -0.3033 H   0  0  0  0  0  0  0  0  0  0  0  0
  1  2  1  0
  2  3  1  0
  3  4  1  0
  4  5  2  0
  5  6  1  0
  6  7  2  0
  7  8  1  0
  2  9  1  0
  9 10  2  0
  9 11  1  0
  8  4  1  0
  1 12  1  0
  1 13  1  0
  2 14  1  1
  3 15  1  0
  3 16  1  0
  5 17  1  0
  7 18  1  0
  8 19  1  0
 11 20  1  0
M  END
$$$$

     RDKit          3D

 20 20  0  0  0  0  0  0  0  0999 V2000
    0.9929   -0.2136    1.6459 N   0  0  0  0  0  0  0  0  0  0  0  0
    1.1399   -0.4436    0.2493 C   0  0  1  0  0  0  0  0  0  0  0  0
    0.3169    0.4776   -0.6177 C   0  0  0  0  0  0  0  0  0  0  0  0
   -1.1255    0.3659   -0.3582 C   0  0  0  0  0  0  0  0  0  0  0  0
   -1.8772    1.0896    0.5553 C   0  0  0  0  0  0  0  0  0  0  0  0
   -3.1408    0.6459    0.4385 N   0  0  0  0  0  0  0  0  0  0  0  0
   -3.1986   -0.3207   -0.5085 C   0  0  0  0  0  0  0  0  0  0  0  0
   -1.9715   -0.4937   -0.9962 N   0  0  0  0  0  0  0  0  0  0  0  0
    2.5725   -0.2730   -0.1124 C   0  0  0  0  0  0  0  0  0  0  0  0
    3.4550    0.0244    0.7211 O   0  0  0  0  0  0  0  0  0  0  0  0
    2.9243   -0.4564   -1.4389 O   0  0  0  0  0  0  0  0  0  0  0  0
    0.3623    0.5405    1.9229 H   0  0  0  0  0  0  0  0  0  0  0  0
    1.0154   -1.0410    2.2474 H   0  0  0  0  0  0  0  0  0  0  0  0
    0.8906   -1.5070    0.0222 H   0  0  0  0  0  0  0  0  0  0  0  0
    0.5150    0.2045   -1.6755 H   0  0  0  0  0  0  0  0  0  0  0  0
    0.6841    1.5181   -0.4967 H   0  0  0  0  0  0  0  0  0  0  0  0
   -1.5239    1.8475    1.2187 H   0  0  0  0  0  0  0  0  0  0  0  0
   -4.0823   -0.8502   -0.8084 H   0  0  0  0  0  0  0  0  0  0  0  0
   -1.6736   -1.1629   -1.7387 H   0  0  0  0  0  0  0  0  0  0  0  0
    3.7244    0.0479   -1.8258 H   0  0  0  0  0  0  0  0  0  0  0  0
  1  2  1  0
  2  3  1  0
  3  4  1  0
  4  5  2  0
  5  6  1  0
  6  7  2  0
  7  8  1  0
  2  9  1  0
  9 10  2  0
  9 11  1  0
  8  4  1  0
  1 12  1  0
  1 13  1  0
  2 14  1  1
  3 15  1  0
  3 16  1  0
  5 17  1  0
  7 18  1  0
  8 19  1  0
 11 20  1  0
M  END
$$$$

     RDKit          3D

 20 20  0  0  0  0  0  0  0  0999 V2000
   -2.2304   -1.7572    0.1982 N   0  0  0  0  0  0  0  0  0  0  0  0
   -1.2727   -0.6669    0.2879 C   0  0  1  0  0  0  0  0  0  0  0  0
    0.0826   -1.0881   -0.2336 C   0  0  0  0  0  0  0  0  0  0  0  0
    1.0964   -0.0125   -0.1640 C   0  0  0  0  0  0  0  0  0  0  0  0
    1.4176    0.9339   -1.1104 C   0  0  0  0  0  0  0  0  0  0  0  0
    2.4050    1.7223   -0.6262 N   0  0  0  0  0  0  0  0  0  0  0  0
    2.7086    1.2800    0.6182 C   0  0  0  0  0  0  0  0  0  0  0  0
    1.9028    0.2306    0.8726 N   0  0  0  0  0  0  0  0  0  0  0  0
   -1.8050    0.5537   -0.3404 C   0  0  0  0  0  0  0  0  0  0  0  0
   -2.9375    0.5171   -0.8774 O   0  0  0  0  0  0  0  0  0  0  0  0
   -1.0956    1.7358   -0.3553 O   0  0  0  0  0  0  0  0  0  0  0  0
   -1.8545   -2.5334   -0.3911 H   0  0  0  0  0  0  0  0  0  0  0  0
   -2.5425   -2.0871    1.1239 H   0  0  0  0  0  0  0  0  0  0  0  0
   -1.1380   -0.4469    1.3755 H   0  0  0  0  0  0  0  0  0  0  0  0
    0.0187   -1.5291   -1.2511 H   0  0  0  0  0  0  0  0  0  0  0  0
    0.4317   -1.9099    0.4243 H   0  0  0  0  0  0  0  0  0  0  0  0
    0.9737    1.0447   -2.0725 H   0  0  0  0  0  0  0  0  0  0  0  0
    3.4604    1.7007    1.2741 H   0  0  0  0  0  0  0  0  0  0  0  0
    1.8959   -0.3366    1.7681 H   0  0  0  0  0  0  0  0  0  0  0  0
   -1.5172    2.6488   -0.5208 H   0  0  0  0  0  0  0  0  0  0  0  0
  1  2  1  0
  2  3  1  0
  3  4  1  0
  4  5  2  0
  5  6  1  0
  6  7  2  0
  7  8  1  0
  2  9  1  0
  9 10  2  0
  9 11  1  0
  8  4  1  0
  1 12  1  0
  1 13  1  0
  2 14  1  1
  3 15  1  0
  3 16  1  0
  5 17  1  0
  7 18  1  0
  8 19  1  0
 11 20  1  0
M  END
$$$$

     RDKit          3D

 20 20  0  0  0  0  0  0  0  0999 V2000
    1.3438   -1.5103   -0.0749 N   0  0  0  0  0  0  0  0  0  0  0  0
    1.2630   -0.3938   -0.9412 C   0  0  1  0  0  0  0  0  0  0  0  0
   -0.1210   -0.1068   -1.4607 C   0  0  0  0  0  0  0  0  0  0  0  0
   -1.1015    0.1755   -0.4107 C   0  0  0  0  0  0  0  0  0  0  0  0
   -1.4044    1.4100    0.1169 C   0  0  0  0  0  0  0  0  0  0  0  0
   -2.3505    1.1962    1.0439 N   0  0  0  0  0  0  0  0  0  0  0  0
   -2.6535   -0.1191    1.1201 C   0  0  0  0  0  0  0  0  0  0  0  0
   -1.8639   -0.7477    0.2034 N   0  0  0  0  0  0  0  0  0  0  0  0
    1.8940    0.7890   -0.3242 C   0  0  0  0  0  0  0  0  0  0  0  0
    1.9578    1.9059   -0.8812 O   0  0  0  0  0  0  0  0  0  0  0  0
    2.4456    0.6596    0.9380 O   0  0  0  0  0  0  0  0  0  0  0  0
    1.1880   -1.3381    0.9190 H   0  0  0  0  0  0  0  0  0  0  0  0
    1.0273   -2.4048   -0.4490 H   0  0  0  0  0  0  0  0  0  0  0  0
    1.8856   -0.6315   -1.8535 H   0  0  0  0  0  0  0  0  0  0  0  0
   -0.0205    0.7963   -2.1292 H   0  0  0  0  0  0  0  0  0  0  0  0
   -0.4169   -0.9351   -2.1437 H   0  0  0  0  0  0  0  0  0  0  0  0
   -1.0102    2.3821   -0.1130 H   0  0  0  0  0  0  0  0  0  0  0  0
   -3.3739   -0.6039    1.7689 H   0  0  0  0  0  0  0  0  0  0  0  0
   -1.8960   -1.7789    0.0535 H   0  0  0  0  0  0  0  0  0  0  0  0
    3.2073    1.2556    1.2812 H   0  0  0  0  0  0  0  0  0  0  0  0
  1  2  1  0
  2  3  1  0
  3  4  1  0
  4  5  2  0
  5  6  1  0
  6  7  2  0
  7  8  1  0
  2  9  1  0
  9 10  2  0
  9 11  1  0
  8  4  1  0
  1 12  1  0
  1 13  1  0
  2 14  1  6
  3 15  1  0
  3 16  1  0
  5 17  1  0
  7 18  1  0
  8 19  1  0
 11 20  1  0
M  END
$$$$

     RDKit          3D

 20 20  0  0  0  0  0  0  0  0999 V2000
   -2.4140   -1.3669    0.3113 N   0  0  0  0  0  0  0  0  0  0  0  0
   -1.3057   -0.4516    0.4609 C   0  0  1  0  0  0  0  0  0  0  0  0
   -0.1317   -1.0551   -0.2742 C   0  0  0  0  0  0  0  0  0  0  0  0
    1.0788   -0.2344   -0.2130 C   0  0  0  0  0  0  0  0  0  0  0  0
    1.4238    0.7478   -1.1267 C   0  0  0  0  0  0  0  0  0  0  0  0
    2.5968    1.2722   -0.7294 N   0  0  0  0  0  0  0  0  0  0  0  0
    2.9912    0.6520    0.3956 C   0  0  0  0  0  0  0  0  0  0  0  0
    2.0673   -0.2718    0.7183 N   0  0  0  0  0  0  0  0  0  0  0  0
   -1.6955    0.8621   -0.0784 C   0  0  0  0  0  0  0  0  0  0  0  0
   -2.8375    1.0279   -0.5689 O   0  0  0  0  0  0  0  0  0  0  0  0
   -0.8514    1.9674   -0.0789 O   0  0  0  0  0  0  0  0  0  0  0  0
   -2.9366   -1.1381   -0.5750 H   0  0  0  0  0  0  0  0  0  0  0  0
   -2.0741   -2.3475    0.3137 H   0  0  0  0  0  0  0  0  0  0  0  0
   -1.0983   -0.3383    1.5500 H   0  0  0  0  0  0  0  0  0  0  0  0
    0.0056   -2.0911    0.0985 H   0  0  0  0  0  0  0  0  0  0  0  0
   -0.4365   -1.1535   -1.3388 H   0  0  0  0  0  0  0  0  0  0  0  0
    0.8723    1.0684   -2.0202 H   0  0  0  0  0  0  0  0  0  0  0  0
    3.9125    0.8619    0.9589 H   0  0  0  0  0  0  0  0  0  0  0  0
    2.0871   -0.9158    1.5376 H   0  0  0  0  0  0  0  0  0  0  0  0
   -1.2541    2.9042    0.0541 H   0  0  0  0  0  0  0  0  0  0  0  0
  1  2  1  0
  2  3  1  0
  3  4  1  0
  4  5  2  0
  5  6  1  0
  6  7  2  0
  7  8  1  0
  2  9  1  0
  9 10  2  0
  9 11  1  0
  8  4  1  0
  1 12  1  0
  1 13  1  0
  2 14  1  1
  3 15  1  0
  3 16  1  0
  5 17  1  0
  7 18  1  0
  8 19  1  0
 11 20  1  0
M  END
$$$$

     RDKit          3D

 20 20  0  0  0  0  0  0  0  0999 V2000
    0.8276    0.9967    1.6967 N   0  0  0  0  0  0  0  0  0  0  0  0
    1.2905   -0.0074    0.7894 C   0  0  1  0  0  0  0  0  0  0  0  0
    0.2534   -1.1100    0.5887 C   0  0  0  0  0  0  0  0  0  0  0  0
   -1.0033   -0.5640    0.0406 C   0  0  0  0  0  0  0  0  0  0  0  0
   -2.0786   -0.0939    0.7409 C   0  0  0  0  0  0  0  0  0  0  0  0
   -2.9824    0.2976   -0.1635 N   0  0  0  0  0  0  0  0  0  0  0  0
   -2.4855    0.0781   -1.3873 C   0  0  0  0  0  0  0  0  0  0  0  0
   -1.2586   -0.4560   -1.2784 N   0  0  0  0  0  0  0  0  0  0  0  0
    1.5757    0.5924   -0.5398 C   0  0  0  0  0  0  0  0  0  0  0  0
    1.3949    1.8179   -0.7120 O   0  0  0  0  0  0  0  0  0  0  0  0
    2.0443   -0.1898   -1.6062 O   0  0  0  0  0  0  0  0  0  0  0  0
    1.2178    0.8530    2.6635 H   0  0  0  0  0  0  0  0  0  0  0  0
    1.2169    1.9207    1.3799 H   0  0  0  0  0  0  0  0  0  0  0  0
    2.2297   -0.4275    1.1636 H   0  0  0  0  0  0  0  0  0  0  0  0
    0.1079   -1.6277    1.5477 H   0  0  0  0  0  0  0  0  0  0  0  0
    0.7394   -1.8475   -0.0958 H   0  0  0  0  0  0  0  0  0  0  0  0
   -2.1824   -0.0460    1.8231 H   0  0  0  0  0  0  0  0  0  0  0  0
   -2.9920    0.2964   -2.3377 H   0  0  0  0  0  0  0  0  0  0  0  0
   -0.6307   -0.7315   -2.0763 H   0  0  0  0  0  0  0  0  0  0  0  0
    2.7154    0.2485   -2.2371 H   0  0  0  0  0  0  0  0  0  0  0  0
  1  2  1  0
  2  3  1  0
  3  4  1  0
  4  5  2  0
  5  6  1  0
  6  7  2  0
  7  8  1  0
  2  9  1  0
  9 10  2  0
  9 11  1  0
  8  4  1  0
  1 12  1  0
  1 13  1  0
  2 14  1  1
  3 15  1  0
  3 16  1  0
  5 17  1  0
  7 18  1  0
  8 19  1  0
 11 20  1  0
M  END
$$$$

     RDKit          3D

 20 20  0  0  0  0  0  0  0  0999 V2000
   -2.4135   -0.8702   -0.8353 N   0  0  0  0  0  0  0  0  0  0  0  0
   -1.3027   -0.4952    0.0523 C   0  0  1  0  0  0  0  0  0  0  0  0
   -0.0421   -0.6663   -0.7602 C   0  0  0  0  0  0  0  0  0  0  0  0
    1.1809   -0.3322   -0.0233 C   0  0  0  0  0  0  0  0  0  0  0  0
    1.9758   -1.1687    0.7470 C   0  0  0  0  0  0  0  0  0  0  0  0
    3.0049   -0.4318    1.2412 N   0  0  0  0  0  0  0  0  0  0  0  0
    2.8731    0.8344    0.8017 C   0  0  0  0  0  0  0  0  0  0  0  0
    1.7724    0.8767    0.0437 N   0  0  0  0  0  0  0  0  0  0  0  0
   -1.5176    0.8769    0.5212 C   0  0  0  0  0  0  0  0  0  0  0  0
   -0.7001    1.4336    1.2990 O   0  0  0  0  0  0  0  0  0  0  0  0
   -2.6262    1.6166    0.1292 O   0  0  0  0  0  0  0  0  0  0  0  0
   -2.4822   -1.9123   -0.8876 H   0  0  0  0  0  0  0  0  0  0  0  0
   -2.1836   -0.5496   -1.8081 H   0  0  0  0  0  0  0  0  0  0  0  0
   -1.3020   -1.1901    0.9224 H   0  0  0  0  0  0  0  0  0  0  0  0
   -0.0312   -1.7382   -1.0924 H   0  0  0  0  0  0  0  0  0  0  0  0
   -0.1662   -0.0550   -1.6880 H   0  0  0  0  0  0  0  0  0  0  0  0
    1.7753   -2.2091    0.8986 H   0  0  0  0  0  0  0  0  0  0  0  0
    3.5518    1.6593    1.0339 H   0  0  0  0  0  0  0  0  0  0  0  0
    1.4030    1.7415   -0.4459 H   0  0  0  0  0  0  0  0  0  0  0  0
   -2.7698    2.5797    0.3891 H   0  0  0  0  0  0  0  0  0  0  0  0
  1  2  1  0
  2  3  1  0
  3  4  1  0
  4  5  2  0
  5  6  1  0
  6  7  2  0
  7  8  1  0
  2  9  1  0
  9 10  2  0
  9 11  1  0
  8  4  1  0
  1 12  1  0
  1 13  1  0
  2 14  1  1
  3 15  1  0
  3 16  1  0
  5 17  1  0
  7 18  1  0
  8 19  1  0
 11 20  1  0
M  END
$$$$

     RDKit          3D

 20 20  0  0  0  0  0  0  0  0999 V2000
   -1.0563   -1.6887   -0.3127 N   0  0  0  0  0  0  0  0  0  0  0  0
   -1.1833   -0.4628    0.4274 C   0  0  1  0  0  0  0  0  0  0  0  0
   -0.2236    0.5920   -0.0046 C   0  0  0  0  0  0  0  0  0  0  0  0
    1.1890    0.2133    0.1347 C   0  0  0  0  0  0  0  0  0  0  0  0
    1.7786   -0.9459    0.5948 C   0  0  0  0  0  0  0  0  0  0  0  0
    3.1268   -0.8063    0.5267 N   0  0  0  0  0  0  0  0  0  0  0  0
    3.3618    0.4164    0.0339 C   0  0  0  0  0  0  0  0  0  0  0  0
    2.2090    1.0245   -0.1999 N   0  0  0  0  0  0  0  0  0  0  0  0
   -2.5619    0.0558    0.2192 C   0  0  0  0  0  0  0  0  0  0  0  0
   -3.4004   -0.5475   -0.4997 O   0  0  0  0  0  0  0  0  0  0  0  0
   -3.0009    1.2408    0.8103 O   0  0  0  0  0  0  0  0  0  0  0  0
   -0.4249   -1.6147   -1.1380 H   0  0  0  0  0  0  0  0  0  0  0  0
   -1.9568   -2.1580   -0.5148 H   0  0  0  0  0  0  0  0  0  0  0  0
   -1.0590   -0.6613    1.5162 H   0  0  0  0  0  0  0  0  0  0  0  0
   -0.3877    1.4823    0.6579 H   0  0  0  0  0  0  0  0  0  0  0  0
   -0.4804    0.9293   -1.0225 H   0  0  0  0  0  0  0  0  0  0  0  0
    1.2007   -1.7941    0.9403 H   0  0  0  0  0  0  0  0  0  0  0  0
    4.3419    0.8323   -0.1418 H   0  0  0  0  0  0  0  0  0  0  0  0
    2.1268    2.0069   -0.5935 H   0  0  0  0  0  0  0  0  0  0  0  0
   -3.5996    1.8858    0.3200 H   0  0  0  0  0  0  0  0  0  0  0  0
  1  2  1  0
  2  3  1  0
  3  4  1  0
  4  5  2  0
  5  6  1  0
  6  7  2  0
  7  8  1  0
  2  9  1  0
  9 10  2  0
  9 11  1  0
  8  4  1  0
  1 12  1  0
  1 13  1  0
  2 14  1  1
  3 15  1  0
  3 16  1  0
  5 17  1  0
  7 18  1  0
  8 19  1  0
 11 20  1  0
M  END
$$$$

     RDKit          3D

 20 20  0  0  0  0  0  0  0  0999 V2000
   -0.6698    0.3823   -1.7537 N   0  0  0  0  0  0  0  0  0  0  0  0
   -0.9128   -0.4447   -0.6499 C   0  0  1  0  0  0  0  0  0  0  0  0
   -0.4940    0.2024    0.6684 C   0  0  0  0  0  0  0  0  0  0  0  0
    0.9628    0.4923    0.6082 C   0  0  0  0  0  0  0  0  0  0  0  0
    1.6388    1.5893    0.1826 C   0  0  0  0  0  0  0  0  0  0  0  0
    2.9563    1.3131    0.3504 N   0  0  0  0  0  0  0  0  0  0  0  0
    3.1097    0.0869    0.8632 C   0  0  0  0  0  0  0  0  0  0  0  0
    1.8855   -0.4143    1.0203 N   0  0  0  0  0  0  0  0  0  0  0  0
   -2.3702   -0.7631   -0.5085 C   0  0  0  0  0  0  0  0  0  0  0  0
   -3.1763   -0.2770   -1.3554 O   0  0  0  0  0  0  0  0  0  0  0  0
   -2.8295   -1.5705    0.5239 O   0  0  0  0  0  0  0  0  0  0  0  0
    0.1323    0.9898   -1.7597 H   0  0  0  0  0  0  0  0  0  0  0  0
   -1.3303    0.4056   -2.5145 H   0  0  0  0  0  0  0  0  0  0  0  0
   -0.3426   -1.3883   -0.7802 H   0  0  0  0  0  0  0  0  0  0  0  0
   -0.7150   -0.4772    1.5172 H   0  0  0  0  0  0  0  0  0  0  0  0
   -1.0086    1.1451    0.8446 H   0  0  0  0  0  0  0  0  0  0  0  0
    1.1896    2.4839   -0.2052 H   0  0  0  0  0  0  0  0  0  0  0  0
    4.0418   -0.4094    1.1062 H   0  0  0  0  0  0  0  0  0  0  0  0
    1.6993   -1.3817    1.4123 H   0  0  0  0  0  0  0  0  0  0  0  0
   -3.7669   -1.9649    0.4298 H   0  0  0  0  0  0  0  0  0  0  0  0
  1  2  1  0
  2  3  1  0
  3  4  1  0
  4  5  2  0
  5  6  1  0
  6  7  2  0
  7  8  1  0
  2  9  1  0
  9 10  2  0
  9 11  1  0
  8  4  1  0
  1 12  1  0
  1 13  1  0
  2 14  1  6
  3 15  1  0
  3 16  1  0
  5 17  1  0
  7 18  1  0
  8 19  1  0
 11 20  1  0
M  END
$$$$

     RDKit          3D

 20 20  0  0  0  0  0  0  0  0999 V2000
   -2.2536   -0.9694    0.9748 N   0  0  0  0  0  0  0  0  0  0  0  0
   -1.1419   -0.0640    0.6552 C   0  0  1  0  0  0  0  0  0  0  0  0
   -0.0160   -0.8904    0.1291 C   0  0  0  0  0  0  0  0  0  0  0  0
    1.2178   -0.1806   -0.1945 C   0  0  0  0  0  0  0  0  0  0  0  0
    1.5781    1.0962    0.1041 C   0  0  0  0  0  0  0  0  0  0  0  0
    2.8002    1.2905   -0.4353 N   0  0  0  0  0  0  0  0  0  0  0  0
    3.1748    0.1706   -1.0423 C   0  0  0  0  0  0  0  0  0  0  0  0
    2.2210   -0.7580   -0.9125 N   0  0  0  0  0  0  0  0  0  0  0  0
   -1.6039    0.8578   -0.4371 C   0  0  0  0  0  0  0  0  0  0  0  0
   -0.9135    1.6995   -1.0167 O   0  0  0  0  0  0  0  0  0  0  0  0
   -2.9467    0.7390   -0.8227 O   0  0  0  0  0  0  0  0  0  0  0  0
   -2.0727   -1.5028    1.8351 H   0  0  0  0  0  0  0  0  0  0  0  0
   -3.1371   -0.4131    1.0448 H   0  0  0  0  0  0  0  0  0  0  0  0
   -0.8500    0.4734    1.5559 H   0  0  0  0  0  0  0  0  0  0  0  0
   -0.4199   -1.4587   -0.7439 H   0  0  0  0  0  0  0  0  0  0  0  0
    0.2370   -1.6480    0.9034 H   0  0  0  0  0  0  0  0  0  0  0  0
    1.0827    1.8799    0.6663 H   0  0  0  0  0  0  0  0  0  0  0  0
    4.1159    0.0403   -1.5622 H   0  0  0  0  0  0  0  0  0  0  0  0
    2.2374   -1.7352   -1.2864 H   0  0  0  0  0  0  0  0  0  0  0  0
   -3.3095    1.3728   -1.5234 H   0  0  0  0  0  0  0  0  0  0  0  0
  1  2  1  0
  2  3  1  0
  3  4  1  0
  4  5  2  0
  5  6  1  0
  6  7  2  0
  7  8  1  0
  2  9  1  0
  9 10  2  0
  9 11  1  0
  8  4  1  0
  1 12  1  0
  1 13  1  0
  2 14  1  1
  3 15  1  0
  3 16  1  0
  5 17  1  0
  7 18  1  0
  8 19  1  0
 11 20  1  0
M  END
$$$$

     RDKit          3D

 20 20  0  0  0  0  0  0  0  0999 V2000
    2.1823   -1.7488   -0.1992 N   0  0  0  0  0  0  0  0  0  0  0  0
    1.2633   -0.6023   -0.3994 C   0  0  1  0  0  0  0  0  0  0  0  0
   -0.0280   -0.9178    0.2635 C   0  0  0  0  0  0  0  0  0  0  0  0
   -1.0935    0.0723    0.1429 C   0  0  0  0  0  0  0  0  0  0  0  0
   -1.2213    1.2244   -0.5866 C   0  0  0  0  0  0  0  0  0  0  0  0
   -2.4212    1.8034   -0.3194 N   0  0  0  0  0  0  0  0  0  0  0  0
   -3.0254    1.0218    0.5600 C   0  0  0  0  0  0  0  0  0  0  0  0
   -2.2579   -0.0133    0.8508 N   0  0  0  0  0  0  0  0  0  0  0  0
    1.9458    0.4964    0.3817 C   0  0  0  0  0  0  0  0  0  0  0  0
    3.0731    0.2987    0.9551 O   0  0  0  0  0  0  0  0  0  0  0  0
    1.4305    1.7609    0.5387 O   0  0  0  0  0  0  0  0  0  0  0  0
    2.2873   -2.2945   -1.0584 H   0  0  0  0  0  0  0  0  0  0  0  0
    1.8716   -2.3052    0.6298 H   0  0  0  0  0  0  0  0  0  0  0  0
    1.2220   -0.3263   -1.4515 H   0  0  0  0  0  0  0  0  0  0  0  0
    0.1195   -1.1299    1.3405 H   0  0  0  0  0  0  0  0  0  0  0  0
   -0.4201   -1.8844   -0.1716 H   0  0  0  0  0  0  0  0  0  0  0  0
   -0.4920    1.6105   -1.2797 H   0  0  0  0  0  0  0  0  0  0  0  0
   -4.0188    1.1619    1.0164 H   0  0  0  0  0  0  0  0  0  0  0  0
   -2.4711   -0.8019    1.5168 H   0  0  0  0  0  0  0  0  0  0  0  0
    2.0541    2.5740    0.4759 H   0  0  0  0  0  0  0  0  0  0  0  0
  1  2  1  0
  2  3  1  0
  3  4  1  0
  4  5  2  0
  5  6  1  0
  6  7  2  0
  7  8  1  0
  2  9  1  0
  9 10  2  0
  9 11  1  0
  8  4  1  0
  1 12  1  0
  1 13  1  0
  2 14  1  6
  3 15  1  0
  3 16  1  0
  5 17  1  0
  7 18  1  0
  8 19  1  0
 11 20  1  0
M  END
$$$$

     RDKit          3D

 20 20  0  0  0  0  0  0  0  0999 V2000
   -1.2916   -1.2367   -0.3227 N   0  0  0  0  0  0  0  0  0  0  0  0
   -1.0957    0.0062    0.3614 C   0  0  1  0  0  0  0  0  0  0  0  0
    0.0498    0.8112   -0.1855 C   0  0  0  0  0  0  0  0  0  0  0  0
    1.3439    0.1317   -0.1134 C   0  0  0  0  0  0  0  0  0  0  0  0
    1.8708   -0.6810   -1.0959 C   0  0  0  0  0  0  0  0  0  0  0  0
    3.0596   -1.1150   -0.6707 N   0  0  0  0  0  0  0  0  0  0  0  0
    3.3135   -0.6111    0.5462 C   0  0  0  0  0  0  0  0  0  0  0  0
    2.2405    0.1513    0.8622 N   0  0  0  0  0  0  0  0  0  0  0  0
   -2.3267    0.8273    0.2170 C   0  0  0  0  0  0  0  0  0  0  0  0
   -2.4257    1.9844    0.7306 O   0  0  0  0  0  0  0  0  0  0  0  0
   -3.4187    0.3679   -0.4831 O   0  0  0  0  0  0  0  0  0  0  0  0
   -1.7468   -1.1283   -1.2574 H   0  0  0  0  0  0  0  0  0  0  0  0
   -1.9423   -1.8279    0.2414 H   0  0  0  0  0  0  0  0  0  0  0  0
   -0.8831   -0.2079    1.4334 H   0  0  0  0  0  0  0  0  0  0  0  0
   -0.2148    1.0863   -1.2396 H   0  0  0  0  0  0  0  0  0  0  0  0
    0.0406    1.7909    0.3679 H   0  0  0  0  0  0  0  0  0  0  0  0
    1.4193   -0.9373   -2.0523 H   0  0  0  0  0  0  0  0  0  0  0  0
    4.1985   -0.7702    1.1724 H   0  0  0  0  0  0  0  0  0  0  0  0
    2.1529    0.6789    1.7664 H   0  0  0  0  0  0  0  0  0  0  0  0
   -4.3440    0.6795   -0.1941 H   0  0  0  0  0  0  0  0  0  0  0  0
  1  2  1  0
  2  3  1  0
  3  4  1  0
  4  5  2  0
  5  6  1  0
  6  7  2  0
  7  8  1  0
  2  9  1  0
  9 10  2  0
  9 11  1  0
  8  4  1  0
  1 12  1  0
  1 13  1  0
  2 14  1  1
  3 15  1  0
  3 16  1  0
  5 17  1  0
  7 18  1  0
  8 19  1  0
 11 20  1  0
M  END
$$$$

     RDKit          3D

 20 20  0  0  0  0  0  0  0  0999 V2000
   -2.2637    0.5123    1.6128 N   0  0  0  0  0  0  0  0  0  0  0  0
   -1.2189    0.6452    0.5677 C   0  0  1  0  0  0  0  0  0  0  0  0
   -0.0773   -0.2185    0.9470 C   0  0  0  0  0  0  0  0  0  0  0  0
    1.0943   -0.2074    0.0766 C   0  0  0  0  0  0  0  0  0  0  0  0
    2.1361   -1.1083    0.2857 C   0  0  0  0  0  0  0  0  0  0  0  0
    3.0826   -0.8766   -0.6114 N   0  0  0  0  0  0  0  0  0  0  0  0
    2.6663    0.1322   -1.3662 C   0  0  0  0  0  0  0  0  0  0  0  0
    1.4641    0.5449   -0.9579 N   0  0  0  0  0  0  0  0  0  0  0  0
   -1.8698    0.0286   -0.6438 C   0  0  0  0  0  0  0  0  0  0  0  0
   -3.0696   -0.3916   -0.5551 O   0  0  0  0  0  0  0  0  0  0  0  0
   -1.2518   -0.1164   -1.8592 O   0  0  0  0  0  0  0  0  0  0  0  0
   -2.2545   -0.5077    1.8555 H   0  0  0  0  0  0  0  0  0  0  0  0
   -1.9405    1.0240    2.4505 H   0  0  0  0  0  0  0  0  0  0  0  0
   -1.0212    1.6872    0.3755 H   0  0  0  0  0  0  0  0  0  0  0  0
    0.2933    0.0284    1.9855 H   0  0  0  0  0  0  0  0  0  0  0  0
   -0.4047   -1.2933    1.0467 H   0  0  0  0  0  0  0  0  0  0  0  0
    2.1991   -1.8936    1.0551 H   0  0  0  0  0  0  0  0  0  0  0  0
    3.2623    0.5292   -2.1914 H   0  0  0  0  0  0  0  0  0  0  0  0
    0.9100    1.3287   -1.3635 H   0  0  0  0  0  0  0  0  0  0  0  0
   -1.7361    0.1528   -2.7099 H   0  0  0  0  0  0  0  0  0  0  0  0
  1  2  1  0
  2  3  1  0
  3  4  1  0
  4  5  2  0
  5  6  1  0
  6  7  2  0
  7  8  1  0
  2  9  1  0
  9 10  2  0
  9 11  1  0
  8  4  1  0
  1 12  1  0
  1 13  1  0
  2 14  1  6
  3 15  1  0
  3 16  1  0
  5 17  1  0
  7 18  1  0
  8 19  1  0
 11 20  1  0
M  END
$$$$

     RDKit          3D

 20 20  0  0  0  0  0  0  0  0999 V2000
   -2.5144   -0.9269   -0.8898 N   0  0  0  0  0  0  0  0  0  0  0  0
   -1.4032   -0.4553   -0.0538 C   0  0  1  0  0  0  0  0  0  0  0  0
   -0.1299   -0.7598   -0.7621 C   0  0  0  0  0  0  0  0  0  0  0  0
    1.0884   -0.3364   -0.0360 C   0  0  0  0  0  0  0  0  0  0  0  0
    1.7865   -1.0760    0.8757 C   0  0  0  0  0  0  0  0  0  0  0  0
    2.8247   -0.3297    1.2887 N   0  0  0  0  0  0  0  0  0  0  0  0
    2.7963    0.8497    0.6646 C   0  0  0  0  0  0  0  0  0  0  0  0
    1.7206    0.8358   -0.1513 N   0  0  0  0  0  0  0  0  0  0  0  0
   -1.5595    0.9994    0.1316 C   0  0  0  0  0  0  0  0  0  0  0  0
   -2.4954    1.6199   -0.4293 O   0  0  0  0  0  0  0  0  0  0  0  0
   -0.6930    1.7430    0.9239 O   0  0  0  0  0  0  0  0  0  0  0  0
   -2.2517   -0.8916   -1.8831 H   0  0  0  0  0  0  0  0  0  0  0  0
   -2.8285   -1.8598   -0.5644 H   0  0  0  0  0  0  0  0  0  0  0  0
   -1.4642   -1.0047    0.9088 H   0  0  0  0  0  0  0  0  0  0  0  0
   -0.1816   -0.2764   -1.7740 H   0  0  0  0  0  0  0  0  0  0  0  0
   -0.0844   -1.8629   -0.9239 H   0  0  0  0  0  0  0  0  0  0  0  0
    1.5183   -2.0915    1.1892 H   0  0  0  0  0  0  0  0  0  0  0  0
    3.4902    1.6966    0.7629 H   0  0  0  0  0  0  0  0  0  0  0  0
    1.4352    1.6284   -0.7788 H   0  0  0  0  0  0  0  0  0  0  0  0
   -1.0545    2.4980    1.5011 H   0  0  0  0  0  0  0  0  0  0  0  0
  1  2  1  0
  2  3  1  0
  3  4  1  0
  4  5  2  0
  5  6  1  0
  6  7  2  0
  7  8  1  0
  2  9  1  0
  9 10  2  0
  9 11  1  0
  8  4  1  0
  1 12  1  0
  1 13  1  0
  2 14  1  1
  3 15  1  0
  3 16  1  0
  5 17  1  0
  7 18  1  0
  8 19  1  0
 11 20  1  0
M  END
$$$$

     RDKit          3D

 20 20  0  0  0  0  0  0  0  0999 V2000
   -0.8156   -0.3743    1.5942 N   0  0  0  0  0  0  0  0  0  0  0  0
   -0.9958    0.4190    0.4222 C   0  0  1  0  0  0  0  0  0  0  0  0
   -0.4028   -0.2777   -0.7721 C   0  0  0  0  0  0  0  0  0  0  0  0
    1.0487   -0.4725   -0.5063 C   0  0  0  0  0  0  0  0  0  0  0  0
    1.6548   -1.5522    0.1031 C   0  0  0  0  0  0  0  0  0  0  0  0
    2.9944   -1.3148    0.1401 N   0  0  0  0  0  0  0  0  0  0  0  0
    3.2324   -0.1295   -0.4240 C   0  0  0  0  0  0  0  0  0  0  0  0
    2.0529    0.3690   -0.8098 N   0  0  0  0  0  0  0  0  0  0  0  0
   -2.3836    0.8321    0.2383 C   0  0  0  0  0  0  0  0  0  0  0  0
   -3.2333    0.4642    1.0894 O   0  0  0  0  0  0  0  0  0  0  0  0
   -2.8303    1.6065   -0.8163 O   0  0  0  0  0  0  0  0  0  0  0  0
   -0.8287   -1.3766    1.3808 H   0  0  0  0  0  0  0  0  0  0  0  0
   -1.5188   -0.0790    2.3063 H   0  0  0  0  0  0  0  0  0  0  0  0
   -0.3874    1.3594    0.5670 H   0  0  0  0  0  0  0  0  0  0  0  0
   -0.8575   -1.3034   -0.8197 H   0  0  0  0  0  0  0  0  0  0  0  0
   -0.4959    0.2814   -1.7038 H   0  0  0  0  0  0  0  0  0  0  0  0
    1.1318   -2.4271    0.4792 H   0  0  0  0  0  0  0  0  0  0  0  0
    4.2314    0.3205   -0.5326 H   0  0  0  0  0  0  0  0  0  0  0  0
    1.9187    1.2959   -1.2881 H   0  0  0  0  0  0  0  0  0  0  0  0
   -3.5156    2.3591   -0.6479 H   0  0  0  0  0  0  0  0  0  0  0  0
  1  2  1  0
  2  3  1  0
  3  4  1  0
  4  5  2  0
  5  6  1  0
  6  7  2  0
  7  8  1  0
  2  9  1  0
  9 10  2  0
  9 11  1  0
  8  4  1  0
  1 12  1  0
  1 13  1  0
  2 14  1  1
  3 15  1  0
  3 16  1  0
  5 17  1  0
  7 18  1  0
  8 19  1  0
 11 20  1  0
M  END
$$$$

     RDKit          3D

 20 20  0  0  0  0  0  0  0  0999 V2000
   -1.1104   -1.1164   -0.6651 N   0  0  0  0  0  0  0  0  0  0  0  0
   -1.0558   -0.3194    0.5381 C   0  0  1  0  0  0  0  0  0  0  0  0
   -0.1001    0.8446    0.4143 C   0  0  0  0  0  0  0  0  0  0  0  0
    1.2862    0.4216    0.1394 C   0  0  0  0  0  0  0  0  0  0  0  0
    2.3181    1.3259   -0.0103 C   0  0  0  0  0  0  0  0  0  0  0  0
    3.4408    0.6308   -0.2488 N   0  0  0  0  0  0  0  0  0  0  0  0
    3.1525   -0.6811   -0.2548 C   0  0  0  0  0  0  0  0  0  0  0  0
    1.8304   -0.7820   -0.0154 N   0  0  0  0  0  0  0  0  0  0  0  0
   -2.3984    0.2579    0.7690 C   0  0  0  0  0  0  0  0  0  0  0  0
   -2.6633    1.0023    1.7463 O   0  0  0  0  0  0  0  0  0  0  0  0
   -3.4134   -0.0278   -0.1236 O   0  0  0  0  0  0  0  0  0  0  0  0
   -0.9788   -2.1400   -0.4713 H   0  0  0  0  0  0  0  0  0  0  0  0
   -2.0467   -1.0475   -1.1360 H   0  0  0  0  0  0  0  0  0  0  0  0
   -0.8299   -0.9394    1.4351 H   0  0  0  0  0  0  0  0  0  0  0  0
   -0.5025    1.5535   -0.3094 H   0  0  0  0  0  0  0  0  0  0  0  0
   -0.0936    1.3491    1.4119 H   0  0  0  0  0  0  0  0  0  0  0  0
    2.2900    2.4005    0.0434 H   0  0  0  0  0  0  0  0  0  0  0  0
    3.8809   -1.4628   -0.4245 H   0  0  0  0  0  0  0  0  0  0  0  0
    1.3237   -1.6722    0.0380 H   0  0  0  0  0  0  0  0  0  0  0  0
   -4.3299    0.4025   -0.1043 H   0  0  0  0  0  0  0  0  0  0  0  0
  1  2  1  0
  2  3  1  0
  3  4  1  0
  4  5  2  0
  5  6  1  0
  6  7  2  0
  7  8  1  0
  2  9  1  0
  9 10  2  0
  9 11  1  0
  8  4  1  0
  1 12  1  0
  1 13  1  0
  2 14  1  1
  3 15  1  0
  3 16  1  0
  5 17  1  0
  7 18  1  0
  8 19  1  0
 11 20  1  0
M  END
$$$$

     RDKit          3D

 20 20  0  0  0  0  0  0  0  0999 V2000
    1.0895    0.8577    1.2122 N   0  0  0  0  0  0  0  0  0  0  0  0
    1.1310   -0.3027    0.3538 C   0  0  1  0  0  0  0  0  0  0  0  0
    0.0092   -0.2816   -0.6671 C   0  0  0  0  0  0  0  0  0  0  0  0
   -1.3215   -0.2638   -0.0464 C   0  0  0  0  0  0  0  0  0  0  0  0
   -2.0925   -1.3344    0.3013 C   0  0  0  0  0  0  0  0  0  0  0  0
   -3.2462   -0.8914    0.8443 N   0  0  0  0  0  0  0  0  0  0  0  0
   -3.1733    0.4559    0.8251 C   0  0  0  0  0  0  0  0  0  0  0  0
   -2.0119    0.8435    0.2878 N   0  0  0  0  0  0  0  0  0  0  0  0
    2.4230   -0.2962   -0.3751 C   0  0  0  0  0  0  0  0  0  0  0  0
    2.6969   -1.2248   -1.1986 O   0  0  0  0  0  0  0  0  0  0  0  0
    3.3818    0.6849   -0.2135 O   0  0  0  0  0  0  0  0  0  0  0  0
    1.3490    1.7336    0.7330 H   0  0  0  0  0  0  0  0  0  0  0  0
    1.6194    0.6838    2.0904 H   0  0  0  0  0  0  0  0  0  0  0  0
    1.0799   -1.2161    0.9737 H   0  0  0  0  0  0  0  0  0  0  0  0
    0.0853   -1.1444   -1.3542 H   0  0  0  0  0  0  0  0  0  0  0  0
    0.1485    0.6448   -1.2649 H   0  0  0  0  0  0  0  0  0  0  0  0
   -1.8835   -2.3944    0.1921 H   0  0  0  0  0  0  0  0  0  0  0  0
   -3.9430    1.1200    1.1914 H   0  0  0  0  0  0  0  0  0  0  0  0
   -1.7157    1.8517    0.1608 H   0  0  0  0  0  0  0  0  0  0  0  0
    4.3741    0.4737   -0.2271 H   0  0  0  0  0  0  0  0  0  0  0  0
  1  2  1  0
  2  3  1  0
  3  4  1  0
  4  5  2  0
  5  6  1  0
  6  7  2  0
  7  8  1  0
  2  9  1  0
  9 10  2  0
  9 11  1  0
  8  4  1  0
  1 12  1  0
  1 13  1  0
  2 14  1  1
  3 15  1  0
  3 16  1  0
  5 17  1  0
  7 18  1  0
  8 19  1  0
 11 20  1  0
M  END
$$$$

     RDKit          3D

 20 20  0  0  0  0  0  0  0  0999 V2000
   -1.2309   -1.2961   -0.8576 N   0  0  0  0  0  0  0  0  0  0  0  0
   -1.1510   -0.4054    0.2561 C   0  0  1  0  0  0  0  0  0  0  0  0
   -0.2074    0.7459    0.0486 C   0  0  0  0  0  0  0  0  0  0  0  0
    1.1769    0.3452   -0.2030 C   0  0  0  0  0  0  0  0  0  0  0  0
    1.7230    0.0989   -1.4440 C   0  0  0  0  0  0  0  0  0  0  0  0
    3.0141   -0.2443   -1.2842 N   0  0  0  0  0  0  0  0  0  0  0  0
    3.3011   -0.2223    0.0232 C   0  0  0  0  0  0  0  0  0  0  0  0
    2.1751    0.1378    0.6706 N   0  0  0  0  0  0  0  0  0  0  0  0
   -2.4977    0.1602    0.5359 C   0  0  0  0  0  0  0  0  0  0  0  0
   -3.5175   -0.1459   -0.1504 O   0  0  0  0  0  0  0  0  0  0  0  0
   -2.7175    1.0651    1.5752 O   0  0  0  0  0  0  0  0  0  0  0  0
   -0.3944   -1.8727   -1.0075 H   0  0  0  0  0  0  0  0  0  0  0  0
   -2.0812   -1.8800   -0.7469 H   0  0  0  0  0  0  0  0  0  0  0  0
   -0.8141   -1.0172    1.1407 H   0  0  0  0  0  0  0  0  0  0  0  0
   -0.3154    1.4050    0.9598 H   0  0  0  0  0  0  0  0  0  0  0  0
   -0.6388    1.3698   -0.7821 H   0  0  0  0  0  0  0  0  0  0  0  0
    1.2406    0.1559   -2.4259 H   0  0  0  0  0  0  0  0  0  0  0  0
    4.2664   -0.4528    0.4812 H   0  0  0  0  0  0  0  0  0  0  0  0
    2.0921    0.2408    1.7066 H   0  0  0  0  0  0  0  0  0  0  0  0
   -3.4234    1.8121    1.5037 H   0  0  0  0  0  0  0  0  0  0  0  0
  1  2  1  0
  2  3  1  0
  3  4  1  0
  4  5  2  0
  5  6  1  0
  6  7  2  0
  7  8  1  0
  2  9  1  0
  9 10  2  0
  9 11  1  0
  8  4  1  0
  1 12  1  0
  1 13  1  0
  2 14  1  1
  3 15  1  0
  3 16  1  0
  5 17  1  0
  7 18  1  0
  8 19  1  0
 11 20  1  0
M  END
$$$$

     RDKit          3D

 20 20  0  0  0  0  0  0  0  0999 V2000
   -0.9828   -1.5144    0.5938 N   0  0  0  0  0  0  0  0  0  0  0  0
   -1.1589   -0.1133    0.3228 C   0  0  1  0  0  0  0  0  0  0  0  0
   -0.1856    0.3283   -0.7492 C   0  0  0  0  0  0  0  0  0  0  0  0
    1.2286    0.1027   -0.3173 C   0  0  0  0  0  0  0  0  0  0  0  0
    2.0119   -1.0202   -0.5034 C   0  0  0  0  0  0  0  0  0  0  0  0
    3.2025   -0.7837    0.0419 N   0  0  0  0  0  0  0  0  0  0  0  0
    3.2278    0.4464    0.5755 C   0  0  0  0  0  0  0  0  0  0  0  0
    2.0083    0.9789    0.3471 N   0  0  0  0  0  0  0  0  0  0  0  0
   -2.5225    0.1837   -0.1418 C   0  0  0  0  0  0  0  0  0  0  0  0
   -3.3579   -0.7696   -0.2506 O   0  0  0  0  0  0  0  0  0  0  0  0
   -2.8753    1.4869   -0.4519 O   0  0  0  0  0  0  0  0  0  0  0  0
   -1.8724   -2.0197    0.3787 H   0  0  0  0  0  0  0  0  0  0  0  0
   -0.6995   -1.6582    1.5825 H   0  0  0  0  0  0  0  0  0  0  0  0
   -0.9633    0.5085    1.2354 H   0  0  0  0  0  0  0  0  0  0  0  0
   -0.3716   -0.2204   -1.6933 H   0  0  0  0  0  0  0  0  0  0  0  0
   -0.3173    1.4185   -0.9181 H   0  0  0  0  0  0  0  0  0  0  0  0
    1.6468   -1.9005   -1.0147 H   0  0  0  0  0  0  0  0  0  0  0  0
    4.0564    0.9486    1.0988 H   0  0  0  0  0  0  0  0  0  0  0  0
    1.7391    1.9542    0.6621 H   0  0  0  0  0  0  0  0  0  0  0  0
   -3.8143    1.6435   -0.7983 H   0  0  0  0  0  0  0  0  0  0  0  0
  1  2  1  0
  2  3  1  0
  3  4  1  0
  4  5  2  0
  5  6  1  0
  6  7  2  0
  7  8  1  0
  2  9  1  0
  9 10  2  0
  9 11  1  0
  8  4  1  0
  1 12  1  0
  1 13  1  0
  2 14  1  1
  3 15  1  0
  3 16  1  0
  5 17  1  0
  7 18  1  0
  8 19  1  0
 11 20  1  0
M  END
$$$$

     RDKit          3D

 20 20  0  0  0  0  0  0  0  0999 V2000
   -1.0986   -1.2941    0.7332 N   0  0  0  0  0  0  0  0  0  0  0  0
   -1.1155    0.0978    0.4123 C   0  0  1  0  0  0  0  0  0  0  0  0
   -0.1707    0.3324   -0.7661 C   0  0  0  0  0  0  0  0  0  0  0  0
    1.1995   -0.0777   -0.4086 C   0  0  0  0  0  0  0  0  0  0  0  0
    1.7181   -1.3361   -0.5950 C   0  0  0  0  0  0  0  0  0  0  0  0
    3.0022   -1.2733   -0.1296 N   0  0  0  0  0  0  0  0  0  0  0  0
    3.2763   -0.0436    0.3244 C   0  0  0  0  0  0  0  0  0  0  0  0
    2.1414    0.6815    0.1407 N   0  0  0  0  0  0  0  0  0  0  0  0
   -2.4674    0.6169    0.1268 C   0  0  0  0  0  0  0  0  0  0  0  0
   -3.4809   -0.1263    0.1724 O   0  0  0  0  0  0  0  0  0  0  0  0
   -2.6712    1.9484   -0.2036 O   0  0  0  0  0  0  0  0  0  0  0  0
   -1.6565   -1.5312    1.5678 H   0  0  0  0  0  0  0  0  0  0  0  0
   -1.2225   -1.9292   -0.0659 H   0  0  0  0  0  0  0  0  0  0  0  0
   -0.6760    0.6556    1.2679 H   0  0  0  0  0  0  0  0  0  0  0  0
   -0.1928    1.3897   -1.1022 H   0  0  0  0  0  0  0  0  0  0  0  0
   -0.5194   -0.2913   -1.6310 H   0  0  0  0  0  0  0  0  0  0  0  0
    1.2366   -2.2145   -1.0188 H   0  0  0  0  0  0  0  0  0  0  0  0
    4.2104    0.2859    0.7456 H   0  0  0  0  0  0  0  0  0  0  0  0
    2.0349    1.6745    0.3931 H   0  0  0  0  0  0  0  0  0  0  0  0
   -3.5479    2.4346    0.0367 H   0  0  0  0  0  0  0  0  0  0  0  0
  1  2  1  0
  2  3  1  0
  3  4  1  0
  4  5  2  0
  5  6  1  0
  6  7  2  0
  7  8  1  0
  2  9  1  0
  9 10  2  0
  9 11  1  0
  8  4  1  0
  1 12  1  0
  1 13  1  0
  2 14  1  1
  3 15  1  0
  3 16  1  0
  5 17  1  0
  7 18  1  0
  8 19  1  0
 11 20  1  0
M  END
$$$$

     RDKit          3D

 20 20  0  0  0  0  0  0  0  0999 V2000
   -2.3418   -0.2387    1.3192 N   0  0  0  0  0  0  0  0  0  0  0  0
   -1.0372    0.3383    0.8809 C   0  0  1  0  0  0  0  0  0  0  0  0
   -0.2265   -0.8384    0.4767 C   0  0  0  0  0  0  0  0  0  0  0  0
    1.1308   -0.6356    0.0347 C   0  0  0  0  0  0  0  0  0  0  0  0
    1.9060   -1.6391   -0.5100 C   0  0  0  0  0  0  0  0  0  0  0  0
    3.1113   -1.1472   -0.7845 N   0  0  0  0  0  0  0  0  0  0  0  0
    3.1332    0.1358   -0.4339 C   0  0  0  0  0  0  0  0  0  0  0  0
    1.9022    0.4514    0.0751 N   0  0  0  0  0  0  0  0  0  0  0  0
   -1.3922    1.2422   -0.2206 C   0  0  0  0  0  0  0  0  0  0  0  0
   -0.5391    1.8841   -0.8530 O   0  0  0  0  0  0  0  0  0  0  0  0
   -2.7107    1.4136   -0.5990 O   0  0  0  0  0  0  0  0  0  0  0  0
   -3.0588    0.5063    1.2615 H   0  0  0  0  0  0  0  0  0  0  0  0
   -2.5698   -0.9546    0.5718 H   0  0  0  0  0  0  0  0  0  0  0  0
   -0.6435    0.8717    1.7447 H   0  0  0  0  0  0  0  0  0  0  0  0
   -0.1807   -1.5156    1.3853 H   0  0  0  0  0  0  0  0  0  0  0  0
   -0.7934   -1.4216   -0.2853 H   0  0  0  0  0  0  0  0  0  0  0  0
    1.6026   -2.6785   -0.6962 H   0  0  0  0  0  0  0  0  0  0  0  0
    3.9891    0.7824   -0.5461 H   0  0  0  0  0  0  0  0  0  0  0  0
    1.7223    1.4056    0.4166 H   0  0  0  0  0  0  0  0  0  0  0  0
   -3.0039    2.0379   -1.3458 H   0  0  0  0  0  0  0  0  0  0  0  0
  1  2  1  0
  2  3  1  0
  3  4  1  0
  4  5  2  0
  5  6  1  0
  6  7  2  0
  7  8  1  0
  2  9  1  0
  9 10  2  0
  9 11  1  0
  8  4  1  0
  1 12  1  0
  1 13  1  0
  2 14  1  1
  3 15  1  0
  3 16  1  0
  5 17  1  0
  7 18  1  0
  8 19  1  0
 11 20  1  0
M  END
$$$$

     RDKit          3D

 20 20  0  0  0  0  0  0  0  0999 V2000
   -2.2959   -1.0245   -1.2877 N   0  0  0  0  0  0  0  0  0  0  0  0
   -1.2151   -0.7333   -0.3983 C   0  0  1  0  0  0  0  0  0  0  0  0
   -0.0841   -0.0041   -1.0839 C   0  0  0  0  0  0  0  0  0  0  0  0
    1.0502    0.3098   -0.1848 C   0  0  0  0  0  0  0  0  0  0  0  0
    1.1973    1.4603    0.5536 C   0  0  0  0  0  0  0  0  0  0  0  0
    2.3534    1.3523    1.2305 N   0  0  0  0  0  0  0  0  0  0  0  0
    2.9002    0.1666    0.9150 C   0  0  0  0  0  0  0  0  0  0  0  0
    2.1088   -0.4829    0.0463 N   0  0  0  0  0  0  0  0  0  0  0  0
   -1.7448   -0.0309    0.7904 C   0  0  0  0  0  0  0  0  0  0  0  0
   -2.9754    0.2226    0.8434 O   0  0  0  0  0  0  0  0  0  0  0  0
   -0.9567    0.3689    1.8618 O   0  0  0  0  0  0  0  0  0  0  0  0
   -2.1731   -1.8502   -1.8725 H   0  0  0  0  0  0  0  0  0  0  0  0
   -2.6936   -0.1923   -1.7650 H   0  0  0  0  0  0  0  0  0  0  0  0
   -0.8164   -1.7056   -0.0352 H   0  0  0  0  0  0  0  0  0  0  0  0
    0.3000   -0.6870   -1.8690 H   0  0  0  0  0  0  0  0  0  0  0  0
   -0.4277    0.9065   -1.6135 H   0  0  0  0  0  0  0  0  0  0  0  0
    0.5133    2.3225    0.6005 H   0  0  0  0  0  0  0  0  0  0  0  0
    3.8556   -0.2027    1.3175 H   0  0  0  0  0  0  0  0  0  0  0  0
    2.3115   -1.4403   -0.3609 H   0  0  0  0  0  0  0  0  0  0  0  0
   -1.2077    1.2444    2.3119 H   0  0  0  0  0  0  0  0  0  0  0  0
  1  2  1  0
  2  3  1  0
  3  4  1  0
  4  5  2  0
  5  6  1  0
  6  7  2  0
  7  8  1  0
  2  9  1  0
  9 10  2  0
  9 11  1  0
  8  4  1  0
  1 12  1  0
  1 13  1  0
  2 14  1  1
  3 15  1  0
  3 16  1  0
  5 17  1  0
  7 18  1  0
  8 19  1  0
 11 20  1  0
M  END
$$$$

     RDKit          3D

 20 20  0  0  0  0  0  0  0  0999 V2000
   -1.1385   -0.1081    1.3281 N   0  0  0  0  0  0  0  0  0  0  0  0
   -0.9974    0.6079    0.0835 C   0  0  1  0  0  0  0  0  0  0  0  0
   -0.0758   -0.2104   -0.8194 C   0  0  0  0  0  0  0  0  0  0  0  0
    1.2583   -0.3890   -0.1882 C   0  0  0  0  0  0  0  0  0  0  0  0
    1.6441   -1.4190    0.6447 C   0  0  0  0  0  0  0  0  0  0  0  0
    2.9226   -1.2544    1.0264 N   0  0  0  0  0  0  0  0  0  0  0  0
    3.3356   -0.1204    0.4311 C   0  0  0  0  0  0  0  0  0  0  0  0
    2.3323    0.4112   -0.3077 N   0  0  0  0  0  0  0  0  0  0  0  0
   -2.3011    0.7275   -0.6167 C   0  0  0  0  0  0  0  0  0  0  0  0
   -2.3907    1.3132   -1.7109 O   0  0  0  0  0  0  0  0  0  0  0  0
   -3.4321    0.1793   -0.0430 O   0  0  0  0  0  0  0  0  0  0  0  0
   -1.7318   -0.9525    1.1419 H   0  0  0  0  0  0  0  0  0  0  0  0
   -1.5598    0.4485    2.0865 H   0  0  0  0  0  0  0  0  0  0  0  0
   -0.5887    1.6311    0.2254 H   0  0  0  0  0  0  0  0  0  0  0  0
   -0.5931   -1.2034   -0.9318 H   0  0  0  0  0  0  0  0  0  0  0  0
   -0.0293    0.3246   -1.7755 H   0  0  0  0  0  0  0  0  0  0  0  0
    0.9869   -2.2242    0.9276 H   0  0  0  0  0  0  0  0  0  0  0  0
    4.3178    0.3143    0.5194 H   0  0  0  0  0  0  0  0  0  0  0  0
    2.3885    1.2912   -0.8712 H   0  0  0  0  0  0  0  0  0  0  0  0
   -4.3477    0.6326   -0.1745 H   0  0  0  0  0  0  0  0  0  0  0  0
  1  2  1  0
  2  3  1  0
  3  4  1  0
  4  5  2  0
  5  6  1  0
  6  7  2  0
  7  8  1  0
  2  9  1  0
  9 10  2  0
  9 11  1  0
  8  4  1  0
  1 12  1  0
  1 13  1  0
  2 14  1  1
  3 15  1  0
  3 16  1  0
  5 17  1  0
  7 18  1  0
  8 19  1  0
 11 20  1  0
M  END
$$$$

     RDKit          3D

 20 20  0  0  0  0  0  0  0  0999 V2000
   -1.1909   -0.4166   -1.5721 N   0  0  0  0  0  0  0  0  0  0  0  0
   -1.3842   -0.6239   -0.1734 C   0  0  1  0  0  0  0  0  0  0  0  0
   -0.1520   -1.1844    0.4456 C   0  0  0  0  0  0  0  0  0  0  0  0
    1.0337   -0.3262    0.3107 C   0  0  0  0  0  0  0  0  0  0  0  0
    2.2673   -0.6717    0.8188 C   0  0  0  0  0  0  0  0  0  0  0  0
    3.1283    0.2984    0.5389 N   0  0  0  0  0  0  0  0  0  0  0  0
    2.4688    1.2373   -0.1278 C   0  0  0  0  0  0  0  0  0  0  0  0
    1.1931    0.8682   -0.2728 N   0  0  0  0  0  0  0  0  0  0  0  0
   -1.9183    0.5707    0.5235 C   0  0  0  0  0  0  0  0  0  0  0  0
   -2.1456    0.5623    1.7605 O   0  0  0  0  0  0  0  0  0  0  0  0
   -2.2015    1.7704   -0.1376 O   0  0  0  0  0  0  0  0  0  0  0  0
   -0.5353   -1.1743   -1.9145 H   0  0  0  0  0  0  0  0  0  0  0  0
   -2.0974   -0.5761   -2.0775 H   0  0  0  0  0  0  0  0  0  0  0  0
   -2.1847   -1.4141   -0.0705 H   0  0  0  0  0  0  0  0  0  0  0  0
    0.0293   -2.1851   -0.0096 H   0  0  0  0  0  0  0  0  0  0  0  0
   -0.2853   -1.3798    1.5430 H   0  0  0  0  0  0  0  0  0  0  0  0
    2.5512   -1.5729    1.3662 H   0  0  0  0  0  0  0  0  0  0  0  0
    2.9525    2.1464   -0.4758 H   0  0  0  0  0  0  0  0  0  0  0  0
    0.4529    1.4031   -0.7495 H   0  0  0  0  0  0  0  0  0  0  0  0
   -1.9822    2.6681    0.2740 H   0  0  0  0  0  0  0  0  0  0  0  0
  1  2  1  0
  2  3  1  0
  3  4  1  0
  4  5  2  0
  5  6  1  0
  6  7  2  0
  7  8  1  0
  2  9  1  0
  9 10  2  0
  9 11  1  0
  8  4  1  0
  1 12  1  0
  1 13  1  0
  2 14  1  6
  3 15  1  0
  3 16  1  0
  5 17  1  0
  7 18  1  0
  8 19  1  0
 11 20  1  0
M  END
$$$$

     RDKit          3D

 20 20  0  0  0  0  0  0  0  0999 V2000
   -2.3777   -1.0762    1.0652 N   0  0  0  0  0  0  0  0  0  0  0  0
   -1.3204   -0.1745    0.6439 C   0  0  1  0  0  0  0  0  0  0  0  0
   -0.1342   -1.0242    0.2683 C   0  0  0  0  0  0  0  0  0  0  0  0
    1.0268   -0.2692   -0.1820 C   0  0  0  0  0  0  0  0  0  0  0  0
    1.3712    0.1334   -1.4568 C   0  0  0  0  0  0  0  0  0  0  0  0
    2.5334    0.8099   -1.4017 N   0  0  0  0  0  0  0  0  0  0  0  0
    2.9158    0.8347   -0.1201 C   0  0  0  0  0  0  0  0  0  0  0  0
    2.0090    0.1858    0.6103 N   0  0  0  0  0  0  0  0  0  0  0  0
   -1.7723    0.7127   -0.4241 C   0  0  0  0  0  0  0  0  0  0  0  0
   -2.9428    0.6375   -0.8630 O   0  0  0  0  0  0  0  0  0  0  0  0
   -0.9304    1.6569   -0.9815 O   0  0  0  0  0  0  0  0  0  0  0  0
   -2.1707   -1.3915    2.0549 H   0  0  0  0  0  0  0  0  0  0  0  0
   -2.3438   -1.9407    0.4483 H   0  0  0  0  0  0  0  0  0  0  0  0
   -1.0292    0.4142    1.5630 H   0  0  0  0  0  0  0  0  0  0  0  0
   -0.4197   -1.7564   -0.5261 H   0  0  0  0  0  0  0  0  0  0  0  0
    0.1182   -1.6386    1.1619 H   0  0  0  0  0  0  0  0  0  0  0  0
    0.8404   -0.0343   -2.3846 H   0  0  0  0  0  0  0  0  0  0  0  0
    3.8144    1.3067    0.2495 H   0  0  0  0  0  0  0  0  0  0  0  0
    2.0943    0.0727    1.6539 H   0  0  0  0  0  0  0  0  0  0  0  0
   -1.2823    2.5409   -1.3794 H   0  0  0  0  0  0  0  0  0  0  0  0
  1  2  1  0
  2  3  1  0
  3  4  1  0
  4  5  2  0
  5  6  1  0
  6  7  2  0
  7  8  1  0
  2  9  1  0
  9 10  2  0
  9 11  1  0
  8  4  1  0
  1 12  1  0
  1 13  1  0
  2 14  1  1
  3 15  1  0
  3 16  1  0
  5 17  1  0
  7 18  1  0
  8 19  1  0
 11 20  1  0
M  END
$$$$

     RDKit          3D

 20 20  0  0  0  0  0  0  0  0999 V2000
   -1.1355   -0.2964   -1.6106 N   0  0  0  0  0  0  0  0  0  0  0  0
   -1.4464   -0.4571   -0.2048 C   0  0  1  0  0  0  0  0  0  0  0  0
   -0.3648   -1.2089    0.5331 C   0  0  0  0  0  0  0  0  0  0  0  0
    0.9408   -0.5475    0.4798 C   0  0  0  0  0  0  0  0  0  0  0  0
    1.3955    0.3760    1.3936 C   0  0  0  0  0  0  0  0  0  0  0  0
    2.6330    0.7457    0.9971 N   0  0  0  0  0  0  0  0  0  0  0  0
    2.9590    0.0805   -0.1332 C   0  0  0  0  0  0  0  0  0  0  0  0
    1.8985   -0.7195   -0.4434 N   0  0  0  0  0  0  0  0  0  0  0  0
   -1.7671    0.8406    0.3945 C   0  0  0  0  0  0  0  0  0  0  0  0
   -2.0654    0.8907    1.6241 O   0  0  0  0  0  0  0  0  0  0  0  0
   -1.7722    2.0503   -0.2868 O   0  0  0  0  0  0  0  0  0  0  0  0
   -0.6152    0.5707   -1.8100 H   0  0  0  0  0  0  0  0  0  0  0  0
   -2.0451   -0.2259   -2.1191 H   0  0  0  0  0  0  0  0  0  0  0  0
   -2.3603   -1.0897   -0.1487 H   0  0  0  0  0  0  0  0  0  0  0  0
   -0.3300   -2.2325    0.0686 H   0  0  0  0  0  0  0  0  0  0  0  0
   -0.7230   -1.3708    1.5683 H   0  0  0  0  0  0  0  0  0  0  0  0
    0.9264    0.7820    2.2786 H   0  0  0  0  0  0  0  0  0  0  0  0
    3.8863    0.2071   -0.6327 H   0  0  0  0  0  0  0  0  0  0  0  0
    1.9131   -1.3361   -1.2835 H   0  0  0  0  0  0  0  0  0  0  0  0
   -1.9276    2.9409    0.2062 H   0  0  0  0  0  0  0  0  0  0  0  0
  1  2  1  0
  2  3  1  0
  3  4  1  0
  4  5  2  0
  5  6  1  0
  6  7  2  0
  7  8  1  0
  2  9  1  0
  9 10  2  0
  9 11  1  0
  8  4  1  0
  1 12  1  0
  1 13  1  0
  2 14  1  6
  3 15  1  0
  3 16  1  0
  5 17  1  0
  7 18  1  0
  8 19  1  0
 11 20  1  0
M  END
$$$$

     RDKit          3D

 20 20  0  0  0  0  0  0  0  0999 V2000
   -2.5873    0.9557   -0.6637 N   0  0  0  0  0  0  0  0  0  0  0  0
   -1.3962    0.0993   -0.5925 C   0  0  1  0  0  0  0  0  0  0  0  0
   -0.2110    0.9128   -0.2122 C   0  0  0  0  0  0  0  0  0  0  0  0
    1.0728    0.2163   -0.1525 C   0  0  0  0  0  0  0  0  0  0  0  0
    1.4855   -1.0299   -0.5422 C   0  0  0  0  0  0  0  0  0  0  0  0
    2.7968   -1.2044   -0.2340 N   0  0  0  0  0  0  0  0  0  0  0  0
    3.1903   -0.0727    0.3412 C   0  0  0  0  0  0  0  0  0  0  0  0
    2.1869    0.7840    0.4005 N   0  0  0  0  0  0  0  0  0  0  0  0
   -1.7280   -0.9356    0.4319 C   0  0  0  0  0  0  0  0  0  0  0  0
   -2.8858   -0.9449    0.9205 O   0  0  0  0  0  0  0  0  0  0  0  0
   -0.8700   -1.9029    0.9064 O   0  0  0  0  0  0  0  0  0  0  0  0
   -2.7439    1.3161   -1.6157 H   0  0  0  0  0  0  0  0  0  0  0  0
   -2.6017    1.6604    0.0844 H   0  0  0  0  0  0  0  0  0  0  0  0
   -1.2669   -0.3884   -1.5650 H   0  0  0  0  0  0  0  0  0  0  0  0
   -0.3786    1.4599    0.7586 H   0  0  0  0  0  0  0  0  0  0  0  0
   -0.1114    1.7538   -0.9600 H   0  0  0  0  0  0  0  0  0  0  0  0
    0.8984   -1.7692   -1.0323 H   0  0  0  0  0  0  0  0  0  0  0  0
    4.1927    0.1329    0.7147 H   0  0  0  0  0  0  0  0  0  0  0  0
    2.2316    1.7537    0.8085 H   0  0  0  0  0  0  0  0  0  0  0  0
   -1.2743   -2.7969    1.2101 H   0  0  0  0  0  0  0  0  0  0  0  0
  1  2  1  0
  2  3  1  0
  3  4  1  0
  4  5  2  0
  5  6  1  0
  6  7  2  0
  7  8  1  0
  2  9  1  0
  9 10  2  0
  9 11  1  0
  8  4  1  0
  1 12  1  0
  1 13  1  0
  2 14  1  6
  3 15  1  0
  3 16  1  0
  5 17  1  0
  7 18  1  0
  8 19  1  0
 11 20  1  0
M  END
$$$$

     RDKit          3D

 20 20  0  0  0  0  0  0  0  0999 V2000
   -1.1573   -0.0449   -1.3876 N   0  0  0  0  0  0  0  0  0  0  0  0
   -1.1649   -0.0934    0.0405 C   0  0  1  0  0  0  0  0  0  0  0  0
    0.0370    0.5385    0.6800 C   0  0  0  0  0  0  0  0  0  0  0  0
    1.3123   -0.0772    0.2984 C   0  0  0  0  0  0  0  0  0  0  0  0
    2.5241    0.3695    0.7861 C   0  0  0  0  0  0  0  0  0  0  0  0
    3.4827   -0.4022    0.2448 N   0  0  0  0  0  0  0  0  0  0  0  0
    2.9263   -1.3020   -0.5516 C   0  0  0  0  0  0  0  0  0  0  0  0
    1.6018   -1.0906   -0.5081 N   0  0  0  0  0  0  0  0  0  0  0  0
   -2.3656    0.5838    0.5586 C   0  0  0  0  0  0  0  0  0  0  0  0
   -2.5582    0.6501    1.7862 O   0  0  0  0  0  0  0  0  0  0  0  0
   -3.2738    1.1424   -0.3053 O   0  0  0  0  0  0  0  0  0  0  0  0
   -1.9709    0.5070   -1.7824 H   0  0  0  0  0  0  0  0  0  0  0  0
   -1.2724   -1.0063   -1.7884 H   0  0  0  0  0  0  0  0  0  0  0  0
   -1.2367   -1.1615    0.3771 H   0  0  0  0  0  0  0  0  0  0  0  0
   -0.0782    0.4040    1.7856 H   0  0  0  0  0  0  0  0  0  0  0  0
    0.0132    1.6370    0.5106 H   0  0  0  0  0  0  0  0  0  0  0  0
    2.7307    1.1791    1.4737 H   0  0  0  0  0  0  0  0  0  0  0  0
    3.4368   -2.0581   -1.1243 H   0  0  0  0  0  0  0  0  0  0  0  0
    0.9228   -1.6638   -1.0475 H   0  0  0  0  0  0  0  0  0  0  0  0
   -3.9097    1.8886   -0.0463 H   0  0  0  0  0  0  0  0  0  0  0  0
  1  2  1  0
  2  3  1  0
  3  4  1  0
  4  5  2  0
  5  6  1  0
  6  7  2  0
  7  8  1  0
  2  9  1  0
  9 10  2  0
  9 11  1  0
  8  4  1  0
  1 12  1  0
  1 13  1  0
  2 14  1  6
  3 15  1  0
  3 16  1  0
  5 17  1  0
  7 18  1  0
  8 19  1  0
 11 20  1  0
M  END
$$$$

     RDKit          3D

 20 20  0  0  0  0  0  0  0  0999 V2000
    1.2754   -1.2314   -0.8874 N   0  0  0  0  0  0  0  0  0  0  0  0
    1.1944    0.1528   -0.5428 C   0  0  1  0  0  0  0  0  0  0  0  0
    0.0804    0.4586    0.4322 C   0  0  0  0  0  0  0  0  0  0  0  0
   -1.2529    0.0949   -0.0950 C   0  0  0  0  0  0  0  0  0  0  0  0
   -2.1064    0.8962   -0.8249 C   0  0  0  0  0  0  0  0  0  0  0  0
   -3.2203    0.1696   -1.1049 N   0  0  0  0  0  0  0  0  0  0  0  0
   -3.0833   -1.0434   -0.5762 C   0  0  0  0  0  0  0  0  0  0  0  0
   -1.8855   -1.0775    0.0344 N   0  0  0  0  0  0  0  0  0  0  0  0
    2.4574    0.6309    0.0718 C   0  0  0  0  0  0  0  0  0  0  0  0
    3.3963   -0.1909    0.2092 O   0  0  0  0  0  0  0  0  0  0  0  0
    2.6624    1.9293    0.5031 O   0  0  0  0  0  0  0  0  0  0  0  0
    2.2089   -1.5564   -1.1613 H   0  0  0  0  0  0  0  0  0  0  0  0
    0.8028   -1.8593   -0.2012 H   0  0  0  0  0  0  0  0  0  0  0  0
    0.9865    0.7794   -1.4555 H   0  0  0  0  0  0  0  0  0  0  0  0
    0.2950   -0.0320    1.4109 H   0  0  0  0  0  0  0  0  0  0  0  0
    0.1446    1.5638    0.6351 H   0  0  0  0  0  0  0  0  0  0  0  0
   -1.9686    1.9122   -1.1418 H   0  0  0  0  0  0  0  0  0  0  0  0
   -3.7925   -1.8579   -0.6209 H   0  0  0  0  0  0  0  0  0  0  0  0
   -1.5291   -1.9197    0.5318 H   0  0  0  0  0  0  0  0  0  0  0  0
    3.3345    2.1808    1.2251 H   0  0  0  0  0  0  0  0  0  0  0  0
  1  2  1  0
  2  3  1  0
  3  4  1  0
  4  5  2  0
  5  6  1  0
  6  7  2  0
  7  8  1  0
  2  9  1  0
  9 10  2  0
  9 11  1  0
  8  4  1  0
  1 12  1  0
  1 13  1  0
  2 14  1  6
  3 15  1  0
  3 16  1  0
  5 17  1  0
  7 18  1  0
  8 19  1  0
 11 20  1  0
M  END
$$$$

     RDKit          3D

 20 20  0  0  0  0  0  0  0  0999 V2000
   -1.1794   -1.6812    0.2312 N   0  0  0  0  0  0  0  0  0  0  0  0
   -1.4031   -0.2769    0.3877 C   0  0  1  0  0  0  0  0  0  0  0  0
   -0.2764    0.4302    1.0989 C   0  0  0  0  0  0  0  0  0  0  0  0
    1.0166    0.2996    0.3767 C   0  0  0  0  0  0  0  0  0  0  0  0
    1.5058    1.1587   -0.5922 C   0  0  0  0  0  0  0  0  0  0  0  0
    2.7068    0.7023   -1.0064 N   0  0  0  0  0  0  0  0  0  0  0  0
    2.9893   -0.4260   -0.3222 C   0  0  0  0  0  0  0  0  0  0  0  0
    1.9535   -0.6532    0.5105 N   0  0  0  0  0  0  0  0  0  0  0  0
   -1.6952    0.3307   -0.9309 C   0  0  0  0  0  0  0  0  0  0  0  0
   -1.7173   -0.3837   -1.9742 O   0  0  0  0  0  0  0  0  0  0  0  0
   -1.9472    1.6899   -1.0326 O   0  0  0  0  0  0  0  0  0  0  0  0
   -2.0361   -2.0904   -0.2036 H   0  0  0  0  0  0  0  0  0  0  0  0
   -1.0526   -2.1778    1.1377 H   0  0  0  0  0  0  0  0  0  0  0  0
   -2.3068   -0.1509    1.0240 H   0  0  0  0  0  0  0  0  0  0  0  0
   -0.2139    0.1124    2.1591 H   0  0  0  0  0  0  0  0  0  0  0  0
   -0.5697    1.5191    1.1322 H   0  0  0  0  0  0  0  0  0  0  0  0
    1.0498    2.0551   -0.9886 H   0  0  0  0  0  0  0  0  0  0  0  0
    3.8973   -1.0272   -0.4392 H   0  0  0  0  0  0  0  0  0  0  0  0
    1.8895   -1.4577    1.1671 H   0  0  0  0  0  0  0  0  0  0  0  0
   -2.6111    2.0270   -1.7352 H   0  0  0  0  0  0  0  0  0  0  0  0
  1  2  1  0
  2  3  1  0
  3  4  1  0
  4  5  2  0
  5  6  1  0
  6  7  2  0
  7  8  1  0
  2  9  1  0
  9 10  2  0
  9 11  1  0
  8  4  1  0
  1 12  1  0
  1 13  1  0
  2 14  1  1
  3 15  1  0
  3 16  1  0
  5 17  1  0
  7 18  1  0
  8 19  1  0
 11 20  1  0
M  END
$$$$

     RDKit          3D

 20 20  0  0  0  0  0  0  0  0999 V2000
    1.0258   -1.8072    0.5873 N   0  0  0  0  0  0  0  0  0  0  0  0
    1.3304   -0.6504   -0.1757 C   0  0  1  0  0  0  0  0  0  0  0  0
    0.3081   -0.2037   -1.1451 C   0  0  0  0  0  0  0  0  0  0  0  0
   -0.9945    0.1430   -0.6078 C   0  0  0  0  0  0  0  0  0  0  0  0
   -2.0608    0.5859   -1.3628 C   0  0  0  0  0  0  0  0  0  0  0  0
   -3.1020    0.8100   -0.5502 N   0  0  0  0  0  0  0  0  0  0  0  0
   -2.7246    0.5209    0.7002 C   0  0  0  0  0  0  0  0  0  0  0  0
   -1.4387    0.1153    0.6548 N   0  0  0  0  0  0  0  0  0  0  0  0
    1.7011    0.4590    0.7427 C   0  0  0  0  0  0  0  0  0  0  0  0
    1.7404    0.3257    1.9846 O   0  0  0  0  0  0  0  0  0  0  0  0
    2.0124    1.6822    0.1827 O   0  0  0  0  0  0  0  0  0  0  0  0
    1.0180   -1.5931    1.6310 H   0  0  0  0  0  0  0  0  0  0  0  0
    1.7199   -2.5823    0.4895 H   0  0  0  0  0  0  0  0  0  0  0  0
    2.2953   -0.8815   -0.7239 H   0  0  0  0  0  0  0  0  0  0  0  0
    0.1510   -1.0496   -1.8813 H   0  0  0  0  0  0  0  0  0  0  0  0
    0.7270    0.6194   -1.7769 H   0  0  0  0  0  0  0  0  0  0  0  0
   -2.0844    0.7372   -2.4308 H   0  0  0  0  0  0  0  0  0  0  0  0
   -3.3519    0.6044    1.5723 H   0  0  0  0  0  0  0  0  0  0  0  0
   -0.9061   -0.1669    1.4781 H   0  0  0  0  0  0  0  0  0  0  0  0
    2.6335    2.3317    0.6313 H   0  0  0  0  0  0  0  0  0  0  0  0
  1  2  1  0
  2  3  1  0
  3  4  1  0
  4  5  2  0
  5  6  1  0
  6  7  2  0
  7  8  1  0
  2  9  1  0
  9 10  2  0
  9 11  1  0
  8  4  1  0
  1 12  1  0
  1 13  1  0
  2 14  1  6
  3 15  1  0
  3 16  1  0
  5 17  1  0
  7 18  1  0
  8 19  1  0
 11 20  1  0
M  END
$$$$

     RDKit          3D

 20 20  0  0  0  0  0  0  0  0999 V2000
   -0.5744   -1.4041   -1.3622 N   0  0  0  0  0  0  0  0  0  0  0  0
   -1.1539   -0.9060   -0.1360 C   0  0  1  0  0  0  0  0  0  0  0  0
   -0.1628   -0.7382    0.9741 C   0  0  0  0  0  0  0  0  0  0  0  0
    0.9256    0.2044    0.6505 C   0  0  0  0  0  0  0  0  0  0  0  0
    1.1617    0.9263   -0.4904 C   0  0  0  0  0  0  0  0  0  0  0  0
    2.2739    1.6556   -0.3345 N   0  0  0  0  0  0  0  0  0  0  0  0
    2.7373    1.3979    0.8930 C   0  0  0  0  0  0  0  0  0  0  0  0
    1.9202    0.5190    1.4887 N   0  0  0  0  0  0  0  0  0  0  0  0
   -1.9652    0.3148   -0.3248 C   0  0  0  0  0  0  0  0  0  0  0  0
   -2.4888    0.8095    0.7085 O   0  0  0  0  0  0  0  0  0  0  0  0
   -2.1890    0.9437   -1.5290 O   0  0  0  0  0  0  0  0  0  0  0  0
    0.0891   -2.1632   -1.1002 H   0  0  0  0  0  0  0  0  0  0  0  0
   -1.3418   -1.8234   -1.9234 H   0  0  0  0  0  0  0  0  0  0  0  0
   -1.8957   -1.7032    0.1737 H   0  0  0  0  0  0  0  0  0  0  0  0
    0.2944   -1.7558    1.1511 H   0  0  0  0  0  0  0  0  0  0  0  0
   -0.6989   -0.4148    1.8741 H   0  0  0  0  0  0  0  0  0  0  0  0
    0.5496    0.9152   -1.3860 H   0  0  0  0  0  0  0  0  0  0  0  0
    3.6352    1.8209    1.3621 H   0  0  0  0  0  0  0  0  0  0  0  0
    2.0208    0.1168    2.4718 H   0  0  0  0  0  0  0  0  0  0  0  0
   -3.1373    1.2845   -1.7545 H   0  0  0  0  0  0  0  0  0  0  0  0
  1  2  1  0
  2  3  1  0
  3  4  1  0
  4  5  2  0
  5  6  1  0
  6  7  2  0
  7  8  1  0
  2  9  1  0
  9 10  2  0
  9 11  1  0
  8  4  1  0
  1 12  1  0
  1 13  1  0
  2 14  1  1
  3 15  1  0
  3 16  1  0
  5 17  1  0
  7 18  1  0
  8 19  1  0
 11 20  1  0
M  END
$$$$

     RDKit          3D

 20 20  0  0  0  0  0  0  0  0999 V2000
   -2.1498    0.7678   -1.5271 N   0  0  0  0  0  0  0  0  0  0  0  0
   -1.2314    0.0866   -0.6532 C   0  0  1  0  0  0  0  0  0  0  0  0
    0.1306    0.6774   -0.9284 C   0  0  0  0  0  0  0  0  0  0  0  0
    1.1432    0.0312   -0.0710 C   0  0  0  0  0  0  0  0  0  0  0  0
    1.5341    0.4771    1.1907 C   0  0  0  0  0  0  0  0  0  0  0  0
    2.4585   -0.3676    1.6322 N   0  0  0  0  0  0  0  0  0  0  0  0
    2.6440   -1.2977    0.7027 C   0  0  0  0  0  0  0  0  0  0  0  0
    1.8495   -1.0804   -0.3577 N   0  0  0  0  0  0  0  0  0  0  0  0
   -1.6676    0.2893    0.7393 C   0  0  0  0  0  0  0  0  0  0  0  0
   -2.6516    1.0387    0.9893 O   0  0  0  0  0  0  0  0  0  0  0  0
   -0.9894   -0.3514    1.7798 O   0  0  0  0  0  0  0  0  0  0  0  0
   -3.1465    0.5834   -1.3302 H   0  0  0  0  0  0  0  0  0  0  0  0
   -1.8827    0.7726   -2.5153 H   0  0  0  0  0  0  0  0  0  0  0  0
   -1.2659   -1.0025   -0.8666 H   0  0  0  0  0  0  0  0  0  0  0  0
    0.3537    0.5342   -2.0125 H   0  0  0  0  0  0  0  0  0  0  0  0
    0.0606    1.7667   -0.6913 H   0  0  0  0  0  0  0  0  0  0  0  0
    1.1840    1.3360    1.7450 H   0  0  0  0  0  0  0  0  0  0  0  0
    3.3310   -2.1333    0.7529 H   0  0  0  0  0  0  0  0  0  0  0  0
    1.7727   -1.6422   -1.2404 H   0  0  0  0  0  0  0  0  0  0  0  0
   -1.4770   -0.4860    2.6619 H   0  0  0  0  0  0  0  0  0  0  0  0
  1  2  1  0
  2  3  1  0
  3  4  1  0
  4  5  2  0
  5  6  1  0
  6  7  2  0
  7  8  1  0
  2  9  1  0
  9 10  2  0
  9 11  1  0
  8  4  1  0
  1 12  1  0
  1 13  1  0
  2 14  1  6
  3 15  1  0
  3 16  1  0
  5 17  1  0
  7 18  1  0
  8 19  1  0
 11 20  1  0
M  END
$$$$

     RDKit          3D

 20 20  0  0  0  0  0  0  0  0999 V2000
   -2.2435   -1.0906    1.2219 N   0  0  0  0  0  0  0  0  0  0  0  0
   -1.2169   -0.2164    0.7280 C   0  0  1  0  0  0  0  0  0  0  0  0
   -0.0845   -1.0801    0.2269 C   0  0  0  0  0  0  0  0  0  0  0  0
    1.0442   -0.3071   -0.3117 C   0  0  0  0  0  0  0  0  0  0  0  0
    1.2295    0.1035   -1.5987 C   0  0  0  0  0  0  0  0  0  0  0  0
    2.3929    0.7765   -1.6296 N   0  0  0  0  0  0  0  0  0  0  0  0
    2.9472    0.8037   -0.4050 C   0  0  0  0  0  0  0  0  0  0  0  0
    2.1096    0.1348    0.3967 N   0  0  0  0  0  0  0  0  0  0  0  0
   -1.7357    0.7110   -0.3093 C   0  0  0  0  0  0  0  0  0  0  0  0
   -2.9502    0.6220   -0.6224 O   0  0  0  0  0  0  0  0  0  0  0  0
   -0.9564    1.6542   -0.9375 O   0  0  0  0  0  0  0  0  0  0  0  0
   -2.8679   -0.6578    1.9212 H   0  0  0  0  0  0  0  0  0  0  0  0
   -1.9295   -2.0404    1.4483 H   0  0  0  0  0  0  0  0  0  0  0  0
   -0.8045    0.3807    1.5801 H   0  0  0  0  0  0  0  0  0  0  0  0
   -0.5132   -1.7563   -0.5388 H   0  0  0  0  0  0  0  0  0  0  0  0
    0.2355   -1.7171    1.0677 H   0  0  0  0  0  0  0  0  0  0  0  0
    0.5650   -0.0797   -2.4322 H   0  0  0  0  0  0  0  0  0  0  0  0
    3.8730    1.2695   -0.1351 H   0  0  0  0  0  0  0  0  0  0  0  0
    2.2481   -0.0288    1.4224 H   0  0  0  0  0  0  0  0  0  0  0  0
   -1.3426    2.5182   -1.3352 H   0  0  0  0  0  0  0  0  0  0  0  0
  1  2  1  0
  2  3  1  0
  3  4  1  0
  4  5  2  0
  5  6  1  0
  6  7  2  0
  7  8  1  0
  2  9  1  0
  9 10  2  0
  9 11  1  0
  8  4  1  0
  1 12  1  0
  1 13  1  0
  2 14  1  1
  3 15  1  0
  3 16  1  0
  5 17  1  0
  7 18  1  0
  8 19  1  0
 11 20  1  0
M  END
$$$$

     RDKit          3D

 20 20  0  0  0  0  0  0  0  0999 V2000
    2.3167   -0.6586   -1.4735 N   0  0  0  0  0  0  0  0  0  0  0  0
    1.1571   -0.0415   -0.8475 C   0  0  1  0  0  0  0  0  0  0  0  0
    0.1579   -1.0590   -0.4093 C   0  0  0  0  0  0  0  0  0  0  0  0
   -0.9968   -0.3804    0.2179 C   0  0  0  0  0  0  0  0  0  0  0  0
   -1.1665   -0.0792    1.5617 C   0  0  0  0  0  0  0  0  0  0  0  0
   -2.3410    0.5266    1.6654 N   0  0  0  0  0  0  0  0  0  0  0  0
   -2.9401    0.6344    0.4672 C   0  0  0  0  0  0  0  0  0  0  0  0
   -2.1078    0.0733   -0.4254 N   0  0  0  0  0  0  0  0  0  0  0  0
    1.6141    0.8830    0.1824 C   0  0  0  0  0  0  0  0  0  0  0  0
    2.8606    0.9617    0.4205 O   0  0  0  0  0  0  0  0  0  0  0  0
    0.8029    1.7107    0.9509 O   0  0  0  0  0  0  0  0  0  0  0  0
    3.0269   -0.8530   -0.7432 H   0  0  0  0  0  0  0  0  0  0  0  0
    2.0014   -1.5122   -1.9769 H   0  0  0  0  0  0  0  0  0  0  0  0
    0.6889    0.5791   -1.6686 H   0  0  0  0  0  0  0  0  0  0  0  0
    0.6017   -1.7489    0.3440 H   0  0  0  0  0  0  0  0  0  0  0  0
   -0.2048   -1.7027   -1.2250 H   0  0  0  0  0  0  0  0  0  0  0  0
   -0.4252   -0.3314    2.3113 H   0  0  0  0  0  0  0  0  0  0  0  0
   -3.9074    1.0816    0.2317 H   0  0  0  0  0  0  0  0  0  0  0  0
   -2.2612   -0.0176   -1.4688 H   0  0  0  0  0  0  0  0  0  0  0  0
    1.1227    1.9341    1.8851 H   0  0  0  0  0  0  0  0  0  0  0  0
  1  2  1  0
  2  3  1  0
  3  4  1  0
  4  5  2  0
  5  6  1  0
  6  7  2  0
  7  8  1  0
  2  9  1  0
  9 10  2  0
  9 11  1  0
  8  4  1  0
  1 12  1  0
  1 13  1  0
  2 14  1  6
  3 15  1  0
  3 16  1  0
  5 17  1  0
  7 18  1  0
  8 19  1  0
 11 20  1  0
M  END
$$$$

     RDKit          3D

 20 20  0  0  0  0  0  0  0  0999 V2000
   -2.2322   -1.6371    0.3646 N   0  0  0  0  0  0  0  0  0  0  0  0
   -1.2311   -0.6061    0.5163 C   0  0  1  0  0  0  0  0  0  0  0  0
   -0.0493   -1.0222   -0.3504 C   0  0  0  0  0  0  0  0  0  0  0  0
    1.0643   -0.0527   -0.2953 C   0  0  0  0  0  0  0  0  0  0  0  0
    1.2615    1.0309   -1.1113 C   0  0  0  0  0  0  0  0  0  0  0  0
    2.3859    1.6581   -0.7363 N   0  0  0  0  0  0  0  0  0  0  0  0
    2.9030    0.9835    0.3086 C   0  0  0  0  0  0  0  0  0  0  0  0
    2.0963   -0.0686    0.5848 N   0  0  0  0  0  0  0  0  0  0  0  0
   -1.7908    0.6859    0.1031 C   0  0  0  0  0  0  0  0  0  0  0  0
   -2.9822    0.7716   -0.3145 O   0  0  0  0  0  0  0  0  0  0  0  0
   -1.0714    1.8721    0.1406 O   0  0  0  0  0  0  0  0  0  0  0  0
   -2.5825   -2.0084    1.2629 H   0  0  0  0  0  0  0  0  0  0  0  0
   -2.0401   -2.3205   -0.3670 H   0  0  0  0  0  0  0  0  0  0  0  0
   -0.9060   -0.5831    1.5557 H   0  0  0  0  0  0  0  0  0  0  0  0
   -0.4569   -1.1066   -1.3939 H   0  0  0  0  0  0  0  0  0  0  0  0
    0.2959   -2.0409   -0.0895 H   0  0  0  0  0  0  0  0  0  0  0  0
    0.6496    1.3826   -1.9440 H   0  0  0  0  0  0  0  0  0  0  0  0
    3.8007    1.1886    0.8760 H   0  0  0  0  0  0  0  0  0  0  0  0
    2.2463   -0.7598    1.3367 H   0  0  0  0  0  0  0  0  0  0  0  0
   -1.3609    2.6327   -0.4470 H   0  0  0  0  0  0  0  0  0  0  0  0
  1  2  1  0
  2  3  1  0
  3  4  1  0
  4  5  2  0
  5  6  1  0
  6  7  2  0
  7  8  1  0
  2  9  1  0
  9 10  2  0
  9 11  1  0
  8  4  1  0
  1 12  1  0
  1 13  1  0
  2 14  1  1
  3 15  1  0
  3 16  1  0
  5 17  1  0
  7 18  1  0
  8 19  1  0
 11 20  1  0
M  END
$$$$

     RDKit          3D

 20 20  0  0  0  0  0  0  0  0999 V2000
    1.4789   -1.2862    0.5571 N   0  0  0  0  0  0  0  0  0  0  0  0
    1.2384   -0.6852   -0.7431 C   0  0  1  0  0  0  0  0  0  0  0  0
   -0.2094   -0.8830   -1.1282 C   0  0  0  0  0  0  0  0  0  0  0  0
   -1.1339   -0.2573   -0.1474 C   0  0  0  0  0  0  0  0  0  0  0  0
   -1.6613   -0.8744    0.9718 C   0  0  0  0  0  0  0  0  0  0  0  0
   -2.4640    0.0182    1.6226 N   0  0  0  0  0  0  0  0  0  0  0  0
   -2.4406    1.1540    0.9361 C   0  0  0  0  0  0  0  0  0  0  0  0
   -1.6414    0.9898   -0.1283 N   0  0  0  0  0  0  0  0  0  0  0  0
    1.6631    0.7134   -0.7899 C   0  0  0  0  0  0  0  0  0  0  0  0
    1.5398    1.4095   -1.8257 O   0  0  0  0  0  0  0  0  0  0  0  0
    2.2218    1.3192    0.3237 O   0  0  0  0  0  0  0  0  0  0  0  0
    2.5050   -1.4811    0.6109 H   0  0  0  0  0  0  0  0  0  0  0  0
    1.2138   -0.5955    1.2951 H   0  0  0  0  0  0  0  0  0  0  0  0
    1.8692   -1.2530   -1.4627 H   0  0  0  0  0  0  0  0  0  0  0  0
   -0.3658   -0.4906   -2.1551 H   0  0  0  0  0  0  0  0  0  0  0  0
   -0.3893   -1.9844   -1.1933 H   0  0  0  0  0  0  0  0  0  0  0  0
   -1.4928   -1.8866    1.3093 H   0  0  0  0  0  0  0  0  0  0  0  0
   -3.0031    2.0467    1.2385 H   0  0  0  0  0  0  0  0  0  0  0  0
   -1.4430    1.7177   -0.8342 H   0  0  0  0  0  0  0  0  0  0  0  0
    2.5146    2.3088    0.3023 H   0  0  0  0  0  0  0  0  0  0  0  0
  1  2  1  0
  2  3  1  0
  3  4  1  0
  4  5  2  0
  5  6  1  0
  6  7  2  0
  7  8  1  0
  2  9  1  0
  9 10  2  0
  9 11  1  0
  8  4  1  0
  1 12  1  0
  1 13  1  0
  2 14  1  6
  3 15  1  0
  3 16  1  0
  5 17  1  0
  7 18  1  0
  8 19  1  0
 11 20  1  0
M  END
$$$$

     RDKit          3D

 20 20  0  0  0  0  0  0  0  0999 V2000
    1.0062    0.1761   -1.8449 N   0  0  0  0  0  0  0  0  0  0  0  0
    1.3917    0.3008   -0.4444 C   0  0  1  0  0  0  0  0  0  0  0  0
    0.3742    1.0460    0.3402 C   0  0  0  0  0  0  0  0  0  0  0  0
   -0.9626    0.4448    0.3587 C   0  0  0  0  0  0  0  0  0  0  0  0
   -2.0337    0.9875    1.0339 C   0  0  0  0  0  0  0  0  0  0  0  0
   -3.1093    0.1983    0.8509 N   0  0  0  0  0  0  0  0  0  0  0  0
   -2.7541   -0.8325    0.0777 C   0  0  0  0  0  0  0  0  0  0  0  0
   -1.4447   -0.6748   -0.2178 N   0  0  0  0  0  0  0  0  0  0  0  0
    1.7985   -0.9890    0.1313 C   0  0  0  0  0  0  0  0  0  0  0  0
    1.7842   -2.0086   -0.5948 O   0  0  0  0  0  0  0  0  0  0  0  0
    2.1898   -1.0912    1.4398 O   0  0  0  0  0  0  0  0  0  0  0  0
    0.2931    0.9283   -2.0454 H   0  0  0  0  0  0  0  0  0  0  0  0
    1.8189    0.3808   -2.4674 H   0  0  0  0  0  0  0  0  0  0  0  0
    2.3249    0.9424   -0.4330 H   0  0  0  0  0  0  0  0  0  0  0  0
    0.3621    2.1040   -0.0498 H   0  0  0  0  0  0  0  0  0  0  0  0
    0.7317    1.0764    1.4063 H   0  0  0  0  0  0  0  0  0  0  0  0
   -2.0096    1.9115    1.6231 H   0  0  0  0  0  0  0  0  0  0  0  0
   -3.3734   -1.6382   -0.2544 H   0  0  0  0  0  0  0  0  0  0  0  0
   -0.8610   -1.3033   -0.8009 H   0  0  0  0  0  0  0  0  0  0  0  0
    2.4732   -1.9594    1.8911 H   0  0  0  0  0  0  0  0  0  0  0  0
  1  2  1  0
  2  3  1  0
  3  4  1  0
  4  5  2  0
  5  6  1  0
  6  7  2  0
  7  8  1  0
  2  9  1  0
  9 10  2  0
  9 11  1  0
  8  4  1  0
  1 12  1  0
  1 13  1  0
  2 14  1  6
  3 15  1  0
  3 16  1  0
  5 17  1  0
  7 18  1  0
  8 19  1  0
 11 20  1  0
M  END
$$$$

     RDKit          3D

 20 20  0  0  0  0  0  0  0  0999 V2000
    0.6333   -1.6179   -0.5230 N   0  0  0  0  0  0  0  0  0  0  0  0
    1.0125   -0.2391   -0.5544 C   0  0  1  0  0  0  0  0  0  0  0  0
    0.3507    0.5554    0.5733 C   0  0  0  0  0  0  0  0  0  0  0  0
   -1.1342    0.4780    0.4426 C   0  0  0  0  0  0  0  0  0  0  0  0
   -1.9305    1.3631   -0.2764 C   0  0  0  0  0  0  0  0  0  0  0  0
   -3.2024    0.9453   -0.1423 N   0  0  0  0  0  0  0  0  0  0  0  0
   -3.2283   -0.1532    0.6237 C   0  0  0  0  0  0  0  0  0  0  0  0
   -1.9668   -0.4261    0.9719 N   0  0  0  0  0  0  0  0  0  0  0  0
    2.4763   -0.1443   -0.3320 C   0  0  0  0  0  0  0  0  0  0  0  0
    3.1806   -1.1668   -0.1547 O   0  0  0  0  0  0  0  0  0  0  0  0
    3.1269    1.0946   -0.3118 O   0  0  0  0  0  0  0  0  0  0  0  0
    1.4545   -2.1747   -0.8917 H   0  0  0  0  0  0  0  0  0  0  0  0
    0.3841   -1.9761    0.4184 H   0  0  0  0  0  0  0  0  0  0  0  0
    0.7797    0.1908   -1.5276 H   0  0  0  0  0  0  0  0  0  0  0  0
    0.6413    1.6224    0.4903 H   0  0  0  0  0  0  0  0  0  0  0  0
    0.6698    0.1972    1.5532 H   0  0  0  0  0  0  0  0  0  0  0  0
   -1.5485    2.2280   -0.8344 H   0  0  0  0  0  0  0  0  0  0  0  0
   -4.1334   -0.6837    0.8824 H   0  0  0  0  0  0  0  0  0  0  0  0
   -1.6612   -1.2209    1.5665 H   0  0  0  0  0  0  0  0  0  0  0  0
    4.0956    1.1281   -0.1057 H   0  0  0  0  0  0  0  0  0  0  0  0
  1  2  1  0
  2  3  1  0
  3  4  1  0
  4  5  2  0
  5  6  1  0
  6  7  2  0
  7  8  1  0
  2  9  1  0
  9 10  2  0
  9 11  1  0
  8  4  1  0
  1 12  1  0
  1 13  1  0
  2 14  1  6
  3 15  1  0
  3 16  1  0
  5 17  1  0
  7 18  1  0
  8 19  1  0
 11 20  1  0
M  END
$$$$

     RDKit          3D

 20 20  0  0  0  0  0  0  0  0999 V2000
   -2.0785   -1.6365   -1.1494 N   0  0  0  0  0  0  0  0  0  0  0  0
   -1.2256   -0.8267   -0.3452 C   0  0  1  0  0  0  0  0  0  0  0  0
    0.1536   -0.8874   -0.9625 C   0  0  0  0  0  0  0  0  0  0  0  0
    1.1437   -0.0782   -0.2154 C   0  0  0  0  0  0  0  0  0  0  0  0
    1.9317   -0.4870    0.8394 C   0  0  0  0  0  0  0  0  0  0  0  0
    2.7137    0.5502    1.2457 N   0  0  0  0  0  0  0  0  0  0  0  0
    2.4164    1.5840    0.4571 C   0  0  0  0  0  0  0  0  0  0  0  0
    1.4671    1.2082   -0.4283 N   0  0  0  0  0  0  0  0  0  0  0  0
   -1.7528    0.5583   -0.2974 C   0  0  0  0  0  0  0  0  0  0  0  0
   -2.8046    0.8657   -0.9561 O   0  0  0  0  0  0  0  0  0  0  0  0
   -1.1379    1.5528    0.4488 O   0  0  0  0  0  0  0  0  0  0  0  0
   -1.6272   -2.3461   -1.7236 H   0  0  0  0  0  0  0  0  0  0  0  0
   -2.9969   -1.8603   -0.7565 H   0  0  0  0  0  0  0  0  0  0  0  0
   -1.2416   -1.2134    0.6884 H   0  0  0  0  0  0  0  0  0  0  0  0
    0.4975   -1.9337   -1.0894 H   0  0  0  0  0  0  0  0  0  0  0  0
    0.0339   -0.5055   -2.0192 H   0  0  0  0  0  0  0  0  0  0  0  0
    1.9699   -1.4581    1.3129 H   0  0  0  0  0  0  0  0  0  0  0  0
    2.8748    2.5679    0.5284 H   0  0  0  0  0  0  0  0  0  0  0  0
    1.0543    1.8222   -1.1620 H   0  0  0  0  0  0  0  0  0  0  0  0
   -1.3916    2.5236    0.3367 H   0  0  0  0  0  0  0  0  0  0  0  0
  1  2  1  0
  2  3  1  0
  3  4  1  0
  4  5  2  0
  5  6  1  0
  6  7  2  0
  7  8  1  0
  2  9  1  0
  9 10  2  0
  9 11  1  0
  8  4  1  0
  1 12  1  0
  1 13  1  0
  2 14  1  1
  3 15  1  0
  3 16  1  0
  5 17  1  0
  7 18  1  0
  8 19  1  0
 11 20  1  0
M  END
$$$$

     RDKit          3D

 20 20  0  0  0  0  0  0  0  0999 V2000
   -1.0407    1.4441    0.2713 N   0  0  0  0  0  0  0  0  0  0  0  0
   -1.1009    0.2582   -0.5012 C   0  0  1  0  0  0  0  0  0  0  0  0
   -0.2251   -0.8162    0.1275 C   0  0  0  0  0  0  0  0  0  0  0  0
    1.1875   -0.3746    0.1995 C   0  0  0  0  0  0  0  0  0  0  0  0
    2.1743   -0.5619   -0.7687 C   0  0  0  0  0  0  0  0  0  0  0  0
    3.2981   -0.0048   -0.2884 N   0  0  0  0  0  0  0  0  0  0  0  0
    3.0707    0.5213    0.9274 C   0  0  0  0  0  0  0  0  0  0  0  0
    1.7749    0.2889    1.2160 N   0  0  0  0  0  0  0  0  0  0  0  0
   -2.5094   -0.2017   -0.5682 C   0  0  0  0  0  0  0  0  0  0  0  0
   -3.4549    0.4068   -0.0078 O   0  0  0  0  0  0  0  0  0  0  0  0
   -2.7844   -1.3536   -1.2822 O   0  0  0  0  0  0  0  0  0  0  0  0
   -0.7711    1.3493    1.2530 H   0  0  0  0  0  0  0  0  0  0  0  0
   -1.6035    2.2264   -0.0074 H   0  0  0  0  0  0  0  0  0  0  0  0
   -0.7041    0.4598   -1.5094 H   0  0  0  0  0  0  0  0  0  0  0  0
   -0.2733   -1.7521   -0.4339 H   0  0  0  0  0  0  0  0  0  0  0  0
   -0.5494   -1.0087    1.1876 H   0  0  0  0  0  0  0  0  0  0  0  0
    2.0517   -1.0562   -1.7123 H   0  0  0  0  0  0  0  0  0  0  0  0
    3.8074    1.0320    1.5415 H   0  0  0  0  0  0  0  0  0  0  0  0
    1.3392    0.6022    2.1176 H   0  0  0  0  0  0  0  0  0  0  0  0
   -3.6870   -1.4592   -1.7620 H   0  0  0  0  0  0  0  0  0  0  0  0
  1  2  1  0
  2  3  1  0
  3  4  1  0
  4  5  2  0
  5  6  1  0
  6  7  2  0
  7  8  1  0
  2  9  1  0
  9 10  2  0
  9 11  1  0
  8  4  1  0
  1 12  1  0
  1 13  1  0
  2 14  1  6
  3 15  1  0
  3 16  1  0
  5 17  1  0
  7 18  1  0
  8 19  1  0
 11 20  1  0
M  END
$$$$

     RDKit          3D

 20 20  0  0  0  0  0  0  0  0999 V2000
   -1.2417    0.3522   -1.4799 N   0  0  0  0  0  0  0  0  0  0  0  0
   -1.4604   -0.3092   -0.2112 C   0  0  1  0  0  0  0  0  0  0  0  0
   -0.3489   -1.2755    0.0266 C   0  0  0  0  0  0  0  0  0  0  0  0
    0.9799   -0.6215    0.0642 C   0  0  0  0  0  0  0  0  0  0  0  0
    2.1886   -1.2926    0.2897 C   0  0  0  0  0  0  0  0  0  0  0  0
    3.1825   -0.4004    0.2529 N   0  0  0  0  0  0  0  0  0  0  0  0
    2.6714    0.8167    0.0139 C   0  0  0  0  0  0  0  0  0  0  0  0
    1.3307    0.6615   -0.0978 N   0  0  0  0  0  0  0  0  0  0  0  0
   -1.7390    0.6184    0.8901 C   0  0  0  0  0  0  0  0  0  0  0  0
   -1.9054    0.1763    2.0401 O   0  0  0  0  0  0  0  0  0  0  0  0
   -1.8288    1.9901    0.7113 O   0  0  0  0  0  0  0  0  0  0  0  0
   -1.0384   -0.3716   -2.1864 H   0  0  0  0  0  0  0  0  0  0  0  0
   -1.9820    1.0154   -1.7388 H   0  0  0  0  0  0  0  0  0  0  0  0
   -2.4009   -0.9303   -0.3599 H   0  0  0  0  0  0  0  0  0  0  0  0
   -0.4815   -1.8337    0.9749 H   0  0  0  0  0  0  0  0  0  0  0  0
   -0.3748   -2.0121   -0.8187 H   0  0  0  0  0  0  0  0  0  0  0  0
    2.2767   -2.3586    0.4626 H   0  0  0  0  0  0  0  0  0  0  0  0
    3.1968    1.7544   -0.0772 H   0  0  0  0  0  0  0  0  0  0  0  0
    0.6468    1.4258   -0.2863 H   0  0  0  0  0  0  0  0  0  0  0  0
   -1.6717    2.5949    1.5300 H   0  0  0  0  0  0  0  0  0  0  0  0
  1  2  1  0
  2  3  1  0
  3  4  1  0
  4  5  2  0
  5  6  1  0
  6  7  2  0
  7  8  1  0
  2  9  1  0
  9 10  2  0
  9 11  1  0
  8  4  1  0
  1 12  1  0
  1 13  1  0
  2 14  1  6
  3 15  1  0
  3 16  1  0
  5 17  1  0
  7 18  1  0
  8 19  1  0
 11 20  1  0
M  END
$$$$

     RDKit          3D

 20 20  0  0  0  0  0  0  0  0999 V2000
   -0.9633   -1.8008    0.6598 N   0  0  0  0  0  0  0  0  0  0  0  0
   -1.3596   -0.4677    0.3250 C   0  0  1  0  0  0  0  0  0  0  0  0
   -0.4660    0.5939    0.9115 C   0  0  0  0  0  0  0  0  0  0  0  0
    0.9300    0.4839    0.4697 C   0  0  0  0  0  0  0  0  0  0  0  0
    1.9070   -0.2456    1.1038 C   0  0  0  0  0  0  0  0  0  0  0  0
    3.0506   -0.1061    0.4101 N   0  0  0  0  0  0  0  0  0  0  0  0
    2.8247    0.6866   -0.6388 C   0  0  0  0  0  0  0  0  0  0  0  0
    1.5113    1.0451   -0.5919 N   0  0  0  0  0  0  0  0  0  0  0  0
   -1.5612   -0.2831   -1.1438 C   0  0  0  0  0  0  0  0  0  0  0  0
   -1.4024   -1.1860   -1.9792 O   0  0  0  0  0  0  0  0  0  0  0  0
   -1.9524    1.0088   -1.5381 O   0  0  0  0  0  0  0  0  0  0  0  0
   -1.2863   -1.9780    1.6570 H   0  0  0  0  0  0  0  0  0  0  0  0
   -1.5279   -2.4551    0.0718 H   0  0  0  0  0  0  0  0  0  0  0  0
   -2.3760   -0.3055    0.7838 H   0  0  0  0  0  0  0  0  0  0  0  0
   -0.5447    0.5102    2.0143 H   0  0  0  0  0  0  0  0  0  0  0  0
   -0.9212    1.5806    0.6175 H   0  0  0  0  0  0  0  0  0  0  0  0
    1.8393   -0.8448    1.9992 H   0  0  0  0  0  0  0  0  0  0  0  0
    3.5600    0.9676   -1.3614 H   0  0  0  0  0  0  0  0  0  0  0  0
    1.1038    1.6723   -1.3231 H   0  0  0  0  0  0  0  0  0  0  0  0
   -2.3658    1.1237   -2.4471 H   0  0  0  0  0  0  0  0  0  0  0  0
  1  2  1  0
  2  3  1  0
  3  4  1  0
  4  5  2  0
  5  6  1  0
  6  7  2  0
  7  8  1  0
  2  9  1  0
  9 10  2  0
  9 11  1  0
  8  4  1  0
  1 12  1  0
  1 13  1  0
  2 14  1  1
  3 15  1  0
  3 16  1  0
  5 17  1  0
  7 18  1  0
  8 19  1  0
 11 20  1  0
M  END
$$$$

     RDKit          3D

 20 20  0  0  0  0  0  0  0  0999 V2000
   -2.5358   -1.1986   -0.0412 N   0  0  0  0  0  0  0  0  0  0  0  0
   -1.3568   -0.4353    0.4052 C   0  0  1  0  0  0  0  0  0  0  0  0
   -0.1953   -1.0045   -0.3779 C   0  0  0  0  0  0  0  0  0  0  0  0
    1.0921   -0.3776   -0.0823 C   0  0  0  0  0  0  0  0  0  0  0  0
    2.0331   -0.7155    0.8697 C   0  0  0  0  0  0  0  0  0  0  0  0
    3.0698    0.1389    0.7831 N   0  0  0  0  0  0  0  0  0  0  0  0
    2.7728    0.9968   -0.2130 C   0  0  0  0  0  0  0  0  0  0  0  0
    1.5858    0.6883   -0.7339 N   0  0  0  0  0  0  0  0  0  0  0  0
   -1.6132    0.9762    0.0674 C   0  0  0  0  0  0  0  0  0  0  0  0
   -2.6834    1.3670   -0.5130 O   0  0  0  0  0  0  0  0  0  0  0  0
   -0.7059    1.9974    0.3558 O   0  0  0  0  0  0  0  0  0  0  0  0
   -2.6044   -2.1087    0.4287 H   0  0  0  0  0  0  0  0  0  0  0  0
   -2.5703   -1.2360   -1.0785 H   0  0  0  0  0  0  0  0  0  0  0  0
   -1.2575   -0.5473    1.4844 H   0  0  0  0  0  0  0  0  0  0  0  0
   -0.0979   -2.0918   -0.1297 H   0  0  0  0  0  0  0  0  0  0  0  0
   -0.4283   -0.8542   -1.4510 H   0  0  0  0  0  0  0  0  0  0  0  0
    1.9883   -1.5219    1.5859 H   0  0  0  0  0  0  0  0  0  0  0  0
    3.3835    1.8282   -0.5678 H   0  0  0  0  0  0  0  0  0  0  0  0
    1.1248    1.2143   -1.5350 H   0  0  0  0  0  0  0  0  0  0  0  0
   -1.0013    2.8843    0.7431 H   0  0  0  0  0  0  0  0  0  0  0  0
  1  2  1  0
  2  3  1  0
  3  4  1  0
  4  5  2  0
  5  6  1  0
  6  7  2  0
  7  8  1  0
  2  9  1  0
  9 10  2  0
  9 11  1  0
  8  4  1  0
  1 12  1  0
  1 13  1  0
  2 14  1  1
  3 15  1  0
  3 16  1  0
  5 17  1  0
  7 18  1  0
  8 19  1  0
 11 20  1  0
M  END
$$$$

     RDKit          3D

 20 20  0  0  0  0  0  0  0  0999 V2000
   -1.1017    1.0831   -0.9020 N   0  0  0  0  0  0  0  0  0  0  0  0
   -1.0110   -0.2824   -0.4454 C   0  0  1  0  0  0  0  0  0  0  0  0
   -0.1207   -0.3922    0.7751 C   0  0  0  0  0  0  0  0  0  0  0  0
    1.2538    0.0796    0.4705 C   0  0  0  0  0  0  0  0  0  0  0  0
    1.7519    1.3516    0.5925 C   0  0  0  0  0  0  0  0  0  0  0  0
    3.0412    1.3123    0.2051 N   0  0  0  0  0  0  0  0  0  0  0  0
    3.3733    0.0571   -0.1575 C   0  0  0  0  0  0  0  0  0  0  0  0
    2.2751   -0.6956    0.0066 N   0  0  0  0  0  0  0  0  0  0  0  0
   -2.3635   -0.8124   -0.0772 C   0  0  0  0  0  0  0  0  0  0  0  0
   -2.4753   -1.9864    0.3416 O   0  0  0  0  0  0  0  0  0  0  0  0
   -3.4678   -0.0059   -0.2023 O   0  0  0  0  0  0  0  0  0  0  0  0
   -1.7870    1.5839   -0.3070 H   0  0  0  0  0  0  0  0  0  0  0  0
   -1.4156    1.1354   -1.8907 H   0  0  0  0  0  0  0  0  0  0  0  0
   -0.6111   -0.9051   -1.2714 H   0  0  0  0  0  0  0  0  0  0  0  0
   -0.5823    0.2220    1.5872 H   0  0  0  0  0  0  0  0  0  0  0  0
   -0.0941   -1.4381    1.1416 H   0  0  0  0  0  0  0  0  0  0  0  0
    1.1821    2.2166    0.9426 H   0  0  0  0  0  0  0  0  0  0  0  0
    4.3613   -0.2139   -0.5052 H   0  0  0  0  0  0  0  0  0  0  0  0
    2.2056   -1.7051   -0.1860 H   0  0  0  0  0  0  0  0  0  0  0  0
   -4.4140   -0.3650   -0.1183 H   0  0  0  0  0  0  0  0  0  0  0  0
  1  2  1  0
  2  3  1  0
  3  4  1  0
  4  5  2  0
  5  6  1  0
  6  7  2  0
  7  8  1  0
  2  9  1  0
  9 10  2  0
  9 11  1  0
  8  4  1  0
  1 12  1  0
  1 13  1  0
  2 14  1  6
  3 15  1  0
  3 16  1  0
  5 17  1  0
  7 18  1  0
  8 19  1  0
 11 20  1  0
M  END
$$$$

     RDKit          3D

 20 20  0  0  0  0  0  0  0  0999 V2000
   -2.4845   -0.9635    0.9372 N   0  0  0  0  0  0  0  0  0  0  0  0
   -1.3396   -0.1165    0.6722 C   0  0  1  0  0  0  0  0  0  0  0  0
   -0.1681   -1.0286    0.4119 C   0  0  0  0  0  0  0  0  0  0  0  0
    1.0798   -0.2751    0.1236 C   0  0  0  0  0  0  0  0  0  0  0  0
    2.0046    0.1446    1.0662 C   0  0  0  0  0  0  0  0  0  0  0  0
    2.9915    0.7868    0.4351 N   0  0  0  0  0  0  0  0  0  0  0  0
    2.7266    0.7903   -0.8777 C   0  0  0  0  0  0  0  0  0  0  0  0
    1.5735    0.1483   -1.0541 N   0  0  0  0  0  0  0  0  0  0  0  0
   -1.6616    0.7553   -0.4731 C   0  0  0  0  0  0  0  0  0  0  0  0
   -2.7785    0.6642   -1.0374 O   0  0  0  0  0  0  0  0  0  0  0  0
   -0.7835    1.7016   -0.9863 O   0  0  0  0  0  0  0  0  0  0  0  0
   -2.6666   -1.5383    0.0807 H   0  0  0  0  0  0  0  0  0  0  0  0
   -2.3453   -1.5718    1.7610 H   0  0  0  0  0  0  0  0  0  0  0  0
   -1.1913    0.5019    1.5867 H   0  0  0  0  0  0  0  0  0  0  0  0
   -0.0269   -1.6839    1.2953 H   0  0  0  0  0  0  0  0  0  0  0  0
   -0.4064   -1.6086   -0.5010 H   0  0  0  0  0  0  0  0  0  0  0  0
    1.9200   -0.0302    2.1293 H   0  0  0  0  0  0  0  0  0  0  0  0
    3.3696    1.2507   -1.6423 H   0  0  0  0  0  0  0  0  0  0  0  0
    1.1217   -0.0009   -1.9913 H   0  0  0  0  0  0  0  0  0  0  0  0
   -0.9350    2.0737   -1.9360 H   0  0  0  0  0  0  0  0  0  0  0  0
  1  2  1  0
  2  3  1  0
  3  4  1  0
  4  5  2  0
  5  6  1  0
  6  7  2  0
  7  8  1  0
  2  9  1  0
  9 10  2  0
  9 11  1  0
  8  4  1  0
  1 12  1  0
  1 13  1  0
  2 14  1  1
  3 15  1  0
  3 16  1  0
  5 17  1  0
  7 18  1  0
  8 19  1  0
 11 20  1  0
M  END
$$$$

     RDKit          3D

 20 20  0  0  0  0  0  0  0  0999 V2000
   -1.1305    1.0446    0.8421 N   0  0  0  0  0  0  0  0  0  0  0  0
   -1.0074    0.5295   -0.4958 C   0  0  1  0  0  0  0  0  0  0  0  0
   -0.1700   -0.7443   -0.4233 C   0  0  0  0  0  0  0  0  0  0  0  0
    1.1529   -0.3304    0.1462 C   0  0  0  0  0  0  0  0  0  0  0  0
    1.4362   -0.3171    1.4955 C   0  0  0  0  0  0  0  0  0  0  0  0
    2.7166    0.1117    1.5867 N   0  0  0  0  0  0  0  0  0  0  0  0
    3.1895    0.3480    0.3502 C   0  0  0  0  0  0  0  0  0  0  0  0
    2.2303    0.0781   -0.5537 N   0  0  0  0  0  0  0  0  0  0  0  0
   -2.3478    0.1962   -1.0024 C   0  0  0  0  0  0  0  0  0  0  0  0
   -2.4936   -0.2772   -2.1668 O   0  0  0  0  0  0  0  0  0  0  0  0
   -3.4909    0.3807   -0.2453 O   0  0  0  0  0  0  0  0  0  0  0  0
   -0.4275    1.7527    1.0972 H   0  0  0  0  0  0  0  0  0  0  0  0
   -1.3322    0.3345    1.5488 H   0  0  0  0  0  0  0  0  0  0  0  0
   -0.5608    1.2706   -1.1653 H   0  0  0  0  0  0  0  0  0  0  0  0
   -0.0314   -1.2098   -1.4111 H   0  0  0  0  0  0  0  0  0  0  0  0
   -0.6852   -1.4837    0.2227 H   0  0  0  0  0  0  0  0  0  0  0  0
    0.8221   -0.5767    2.3311 H   0  0  0  0  0  0  0  0  0  0  0  0
    4.1952    0.7006    0.1649 H   0  0  0  0  0  0  0  0  0  0  0  0
    2.2832    0.1597   -1.5911 H   0  0  0  0  0  0  0  0  0  0  0  0
   -4.3488    0.6775   -0.7306 H   0  0  0  0  0  0  0  0  0  0  0  0
  1  2  1  0
  2  3  1  0
  3  4  1  0
  4  5  2  0
  5  6  1  0
  6  7  2  0
  7  8  1  0
  2  9  1  0
  9 10  2  0
  9 11  1  0
  8  4  1  0
  1 12  1  0
  1 13  1  0
  2 14  1  6
  3 15  1  0
  3 16  1  0
  5 17  1  0
  7 18  1  0
  8 19  1  0
 11 20  1  0
M  END
$$$$

     RDKit          3D

 20 20  0  0  0  0  0  0  0  0999 V2000
    0.8035    1.0812   -1.2536 N   0  0  0  0  0  0  0  0  0  0  0  0
    1.0956    0.4824    0.0337 C   0  0  1  0  0  0  0  0  0  0  0  0
    0.2303   -0.7565    0.2636 C   0  0  0  0  0  0  0  0  0  0  0  0
   -1.2021   -0.4237    0.2369 C   0  0  0  0  0  0  0  0  0  0  0  0
   -1.9651   -0.0534    1.3210 C   0  0  0  0  0  0  0  0  0  0  0  0
   -3.2009    0.1576    0.8653 N   0  0  0  0  0  0  0  0  0  0  0  0
   -3.2389   -0.0658   -0.4563 C   0  0  0  0  0  0  0  0  0  0  0  0
   -2.0014   -0.4251   -0.8420 N   0  0  0  0  0  0  0  0  0  0  0  0
    2.5076    0.0391    0.0992 C   0  0  0  0  0  0  0  0  0  0  0  0
    3.2996    0.1885   -0.8643 O   0  0  0  0  0  0  0  0  0  0  0  0
    2.9574   -0.5598    1.2697 O   0  0  0  0  0  0  0  0  0  0  0  0
    1.5271    0.7684   -1.9437 H   0  0  0  0  0  0  0  0  0  0  0  0
    0.7723    2.1170   -1.2097 H   0  0  0  0  0  0  0  0  0  0  0  0
    0.8285    1.1933    0.8292 H   0  0  0  0  0  0  0  0  0  0  0  0
    0.5213   -1.4928   -0.5337 H   0  0  0  0  0  0  0  0  0  0  0  0
    0.5640   -1.1751    1.2424 H   0  0  0  0  0  0  0  0  0  0  0  0
   -1.6272    0.0503    2.3641 H   0  0  0  0  0  0  0  0  0  0  0  0
   -4.0990    0.0190   -1.1267 H   0  0  0  0  0  0  0  0  0  0  0  0
   -1.7205   -0.6659   -1.8351 H   0  0  0  0  0  0  0  0  0  0  0  0
    3.9479   -0.4786    1.5399 H   0  0  0  0  0  0  0  0  0  0  0  0
  1  2  1  0
  2  3  1  0
  3  4  1  0
  4  5  2  0
  5  6  1  0
  6  7  2  0
  7  8  1  0
  2  9  1  0
  9 10  2  0
  9 11  1  0
  8  4  1  0
  1 12  1  0
  1 13  1  0
  2 14  1  1
  3 15  1  0
  3 16  1  0
  5 17  1  0
  7 18  1  0
  8 19  1  0
 11 20  1  0
M  END
$$$$
