
     RDKit          3D

 55 57  0  0  0  0  0  0  0  0999 V2000
   -8.7366    2.5978    1.1137 N   0  0  0  0  0  0  0  0  0  0  0  0
   -7.7033    1.7938    0.5729 C   0  0  0  0  0  0  0  0  0  0  0  0
   -7.0976    2.1930   -0.5470 N   0  0  0  0  0  0  0  0  0  0  0  0
   -6.1132    1.4800   -1.1079 C   0  0  0  0  0  0  0  0  0  0  0  0
   -5.5250    1.8417   -2.1720 O   0  0  0  0  0  0  0  0  0  0  0  0
   -5.7345    0.2909   -0.4775 C   0  0  0  0  0  0  0  0  0  0  0  0
   -6.3530   -0.1297    0.6784 C   0  0  0  0  0  0  0  0  0  0  0  0
   -7.3336    0.6406    1.1815 N   0  0  0  0  0  0  0  0  0  0  0  0
   -5.9518   -1.3541    1.3126 N   0  0  0  0  0  0  0  0  0  0  0  0
   -4.5839   -1.7748    1.0324 C   0  0  0  0  0  0  0  0  0  0  0  0
   -4.3905   -1.7960   -0.4650 C   0  0  2  0  0  0  0  0  0  0  0  0
   -2.9189   -2.0404   -0.7867 C   0  0  0  0  0  0  0  0  0  0  0  0
   -2.1532   -0.9782   -0.2203 N   0  0  0  0  0  0  0  0  0  0  0  0
   -0.7167   -0.9482   -0.3468 C   0  0  0  0  0  0  0  0  0  0  0  0
   -0.0062   -1.9068   -1.0339 C   0  0  0  0  0  0  0  0  0  0  0  0
    1.3633   -1.8748   -1.1527 C   0  0  0  0  0  0  0  0  0  0  0  0
    2.0876   -0.8564   -0.5731 C   0  0  0  0  0  0  0  0  0  0  0  0
    3.5427   -0.8561   -0.7286 C   0  0  0  0  0  0  0  0  0  0  0  0
    4.1022   -1.6875   -1.4811 O   0  0  0  0  0  0  0  0  0  0  0  0
    4.3287    0.0752   -0.0367 N   0  0  0  0  0  0  0  0  0  0  0  0
    5.8029    0.0410   -0.2271 C   0  0  1  0  0  0  0  0  0  0  0  0
    6.1063    1.3842   -0.8139 C   0  0  0  0  0  0  0  0  0  0  0  0
    7.5258    1.6766   -1.1067 C   0  0  0  0  0  0  0  0  0  0  0  0
    8.3528    1.7705    0.0900 C   0  0  0  0  0  0  0  0  0  0  0  0
    9.5839    1.4357    0.0872 O   0  0  0  0  0  0  0  0  0  0  0  0
    7.8369    2.2408    1.3091 O   0  0  0  0  0  0  0  0  0  0  0  0
    6.4597   -0.3256    1.0145 C   0  0  0  0  0  0  0  0  0  0  0  0
    5.7932   -0.3219    2.1133 O   0  0  0  0  0  0  0  0  0  0  0  0
    7.7825   -0.7065    1.1637 O   0  0  0  0  0  0  0  0  0  0  0  0
    1.4087    0.1138    0.1185 C   0  0  0  0  0  0  0  0  0  0  0  0
    0.0272    0.0626    0.2260 C   0  0  0  0  0  0  0  0  0  0  0  0
   -4.7021   -0.4972   -1.0211 N   0  0  0  0  0  0  0  0  0  0  0  0
   -9.2203    3.2958    0.5267 H   0  0  0  0  0  0  0  0  0  0  0  0
   -9.0222    2.4977    2.1058 H   0  0  0  0  0  0  0  0  0  0  0  0
   -7.8011    0.3179    2.0616 H   0  0  0  0  0  0  0  0  0  0  0  0
   -6.6158   -1.8536    1.9077 H   0  0  0  0  0  0  0  0  0  0  0  0
   -3.9377   -1.0317    1.5049 H   0  0  0  0  0  0  0  0  0  0  0  0
   -4.3817   -2.7800    1.4679 H   0  0  0  0  0  0  0  0  0  0  0  0
   -5.0162   -2.5972   -0.9184 H   0  0  0  0  0  0  0  0  0  0  0  0
   -2.8598   -2.0938   -1.8989 H   0  0  0  0  0  0  0  0  0  0  0  0
   -2.6008   -3.0348   -0.3689 H   0  0  0  0  0  0  0  0  0  0  0  0
   -2.5927   -0.1989    0.2896 H   0  0  0  0  0  0  0  0  0  0  0  0
   -0.5571   -2.7183   -1.4984 H   0  0  0  0  0  0  0  0  0  0  0  0
    1.9176   -2.6416   -1.7010 H   0  0  0  0  0  0  0  0  0  0  0  0
    3.9753    0.7920    0.6015 H   0  0  0  0  0  0  0  0  0  0  0  0
    5.9906   -0.7606   -0.9801 H   0  0  0  0  0  0  0  0  0  0  0  0
    5.5495    1.5143   -1.8012 H   0  0  0  0  0  0  0  0  0  0  0  0
    5.6352    2.1967   -0.1829 H   0  0  0  0  0  0  0  0  0  0  0  0
    7.8905    0.8703   -1.8053 H   0  0  0  0  0  0  0  0  0  0  0  0
    7.5302    2.6591   -1.6837 H   0  0  0  0  0  0  0  0  0  0  0  0
    8.4994    2.6957    1.9527 H   0  0  0  0  0  0  0  0  0  0  0  0
    8.2635   -0.4031    2.0004 H   0  0  0  0  0  0  0  0  0  0  0  0
    1.9586    0.9425    0.5937 H   0  0  0  0  0  0  0  0  0  0  0  0
   -0.5031    0.8391    0.7771 H   0  0  0  0  0  0  0  0  0  0  0  0
   -4.1864   -0.0915   -1.8364 H   0  0  0  0  0  0  0  0  0  0  0  0
  1  2  1  0
  2  3  2  0
  3  4  1  0
  4  5  2  0
  4  6  1  0
  6  7  2  0
  7  8  1  0
  7  9  1  0
  9 10  1  0
 10 11  1  0
 11 12  1  0
 12 13  1  0
 13 14  1  0
 14 15  2  0
 15 16  1  0
 16 17  2  0
 17 18  1  0
 18 19  2  0
 18 20  1  0
 20 21  1  0
 21 22  1  0
 22 23  1  0
 23 24  1  0
 24 25  2  0
 24 26  1  0
 21 27  1  0
 27 28  2  0
 27 29  1  0
 17 30  1  0
 30 31  2  0
 11 32  1  0
  8  2  1  0
 31 14  1  0
 32  6  1  0
  1 33  1  0
  1 34  1  0
  8 35  1  0
  9 36  1  0
 10 37  1  0
 10 38  1  0
 11 39  1  6
 12 40  1  0
 12 41  1  0
 13 42  1  0
 15 43  1  0
 16 44  1  0
 20 45  1  0
 21 46  1  6
 22 47  1  0
 22 48  1  0
 23 49  1  0
 23 50  1  0
 26 51  1  0
 29 52  1  0
 30 53  1  0
 31 54  1  0
 32 55  1  0
M  END
$$$$

     RDKit          3D

 55 57  0  0  0  0  0  0  0  0999 V2000
  -10.2734   -0.0585   -0.3329 N   0  0  0  0  0  0  0  0  0  0  0  0
   -8.8377   -0.1050   -0.4755 C   0  0  0  0  0  0  0  0  0  0  0  0
   -8.2673   -0.1403   -1.6940 N   0  0  0  0  0  0  0  0  0  0  0  0
   -6.9235   -0.1831   -1.7901 C   0  0  0  0  0  0  0  0  0  0  0  0
   -6.3418   -0.2175   -2.9242 O   0  0  0  0  0  0  0  0  0  0  0  0
   -6.1118   -0.1921   -0.6919 C   0  0  0  0  0  0  0  0  0  0  0  0
   -6.7045   -0.1558    0.5500 C   0  0  0  0  0  0  0  0  0  0  0  0
   -8.0609   -0.1130    0.6228 N   0  0  0  0  0  0  0  0  0  0  0  0
   -5.8977   -0.1635    1.7238 N   0  0  0  0  0  0  0  0  0  0  0  0
   -4.4714    0.0694    1.5939 C   0  0  0  0  0  0  0  0  0  0  0  0
   -3.9785   -0.6852    0.4100 C   0  0  2  0  0  0  0  0  0  0  0  0
   -2.4958   -0.6738    0.2377 C   0  0  0  0  0  0  0  0  0  0  0  0
   -1.9250    0.6179    0.0773 N   0  0  0  0  0  0  0  0  0  0  0  0
   -0.5212    0.7469   -0.0972 C   0  0  0  0  0  0  0  0  0  0  0  0
    0.0710    1.9945   -0.2550 C   0  0  0  0  0  0  0  0  0  0  0  0
    1.4296    2.1309   -0.4251 C   0  0  0  0  0  0  0  0  0  0  0  0
    2.2796    1.0171   -0.4471 C   0  0  0  0  0  0  0  0  0  0  0  0
    3.7221    1.2036   -0.6309 C   0  0  0  0  0  0  0  0  0  0  0  0
    4.1791    2.3907   -0.7629 O   0  0  0  0  0  0  0  0  0  0  0  0
    4.5900    0.0884   -0.6614 N   0  0  0  0  0  0  0  0  0  0  0  0
    6.0264    0.2784   -0.8448 C   0  0  1  0  0  0  0  0  0  0  0  0
    6.6969   -0.3052    0.3696 C   0  0  0  0  0  0  0  0  0  0  0  0
    8.1903   -0.1961    0.3588 C   0  0  0  0  0  0  0  0  0  0  0  0
    8.7037   -0.8076    1.6326 C   0  0  0  0  0  0  0  0  0  0  0  0
    9.9401   -0.8144    1.8153 O   0  0  0  0  0  0  0  0  0  0  0  0
    7.8446   -1.3438    2.5700 O   0  0  0  0  0  0  0  0  0  0  0  0
    6.4476   -0.3775   -2.0884 C   0  0  0  0  0  0  0  0  0  0  0  0
    5.6238   -1.0184   -2.8217 O   0  0  0  0  0  0  0  0  0  0  0  0
    7.7612   -0.3225   -2.5124 O   0  0  0  0  0  0  0  0  0  0  0  0
    1.6839   -0.2110   -0.2902 C   0  0  0  0  0  0  0  0  0  0  0  0
    0.3197   -0.3512   -0.1192 C   0  0  0  0  0  0  0  0  0  0  0  0
   -4.6921   -0.2368   -0.7611 N   0  0  0  0  0  0  0  0  0  0  0  0
  -10.7286    0.6142    0.3074 H   0  0  0  0  0  0  0  0  0  0  0  0
  -10.9005   -0.6994   -0.8690 H   0  0  0  0  0  0  0  0  0  0  0  0
   -8.5106   -0.0856    1.5616 H   0  0  0  0  0  0  0  0  0  0  0  0
   -6.3311   -0.3328    2.6463 H   0  0  0  0  0  0  0  0  0  0  0  0
   -4.3624    1.1749    1.3950 H   0  0  0  0  0  0  0  0  0  0  0  0
   -3.9317   -0.1916    2.5303 H   0  0  0  0  0  0  0  0  0  0  0  0
   -4.2787   -1.7635    0.5581 H   0  0  0  0  0  0  0  0  0  0  0  0
   -2.2491   -1.2776   -0.6618 H   0  0  0  0  0  0  0  0  0  0  0  0
   -2.0444   -1.1731    1.1229 H   0  0  0  0  0  0  0  0  0  0  0  0
   -2.5129    1.4709    0.0847 H   0  0  0  0  0  0  0  0  0  0  0  0
   -0.5253    2.8949   -0.2478 H   0  0  0  0  0  0  0  0  0  0  0  0
    1.9091    3.0979   -0.5498 H   0  0  0  0  0  0  0  0  0  0  0  0
    4.2461   -0.8858   -0.5567 H   0  0  0  0  0  0  0  0  0  0  0  0
    6.2143    1.3656   -0.9368 H   0  0  0  0  0  0  0  0  0  0  0  0
    6.2995    0.2774    1.2505 H   0  0  0  0  0  0  0  0  0  0  0  0
    6.3858   -1.3721    0.4949 H   0  0  0  0  0  0  0  0  0  0  0  0
    8.6876   -0.7278   -0.4533 H   0  0  0  0  0  0  0  0  0  0  0  0
    8.5075    0.8607    0.3090 H   0  0  0  0  0  0  0  0  0  0  0  0
    8.1607   -2.0459    3.2427 H   0  0  0  0  0  0  0  0  0  0  0  0
    8.0543   -0.6951   -3.4239 H   0  0  0  0  0  0  0  0  0  0  0  0
    2.2751   -1.1036   -0.2970 H   0  0  0  0  0  0  0  0  0  0  0  0
   -0.1498   -1.3257    0.0048 H   0  0  0  0  0  0  0  0  0  0  0  0
   -4.2219    0.0573   -1.6590 H   0  0  0  0  0  0  0  0  0  0  0  0
  1  2  1  0
  2  3  2  0
  3  4  1  0
  4  5  2  0
  4  6  1  0
  6  7  2  0
  7  8  1  0
  7  9  1  0
  9 10  1  0
 10 11  1  0
 11 12  1  0
 12 13  1  0
 13 14  1  0
 14 15  2  0
 15 16  1  0
 16 17  2  0
 17 18  1  0
 18 19  2  0
 18 20  1  0
 20 21  1  0
 21 22  1  0
 22 23  1  0
 23 24  1  0
 24 25  2  0
 24 26  1  0
 21 27  1  0
 27 28  2  0
 27 29  1  0
 17 30  1  0
 30 31  2  0
 11 32  1  0
  8  2  1  0
 31 14  1  0
 32  6  1  0
  1 33  1  0
  1 34  1  0
  8 35  1  0
  9 36  1  0
 10 37  1  0
 10 38  1  0
 11 39  1  1
 12 40  1  0
 12 41  1  0
 13 42  1  0
 15 43  1  0
 16 44  1  0
 20 45  1  0
 21 46  1  6
 22 47  1  0
 22 48  1  0
 23 49  1  0
 23 50  1  0
 26 51  1  0
 29 52  1  0
 30 53  1  0
 31 54  1  0
 32 55  1  0
M  END
$$$$

     RDKit          3D

 55 57  0  0  0  0  0  0  0  0999 V2000
   -6.5646    3.6455    1.1167 N   0  0  0  0  0  0  0  0  0  0  0  0
   -6.1344    2.4390    0.5049 C   0  0  0  0  0  0  0  0  0  0  0  0
   -5.9149    2.3391   -0.8194 N   0  0  0  0  0  0  0  0  0  0  0  0
   -5.5095    1.1774   -1.3485 C   0  0  0  0  0  0  0  0  0  0  0  0
   -5.3063    1.0971   -2.5988 O   0  0  0  0  0  0  0  0  0  0  0  0
   -5.2965    0.0422   -0.5967 C   0  0  0  0  0  0  0  0  0  0  0  0
   -5.5232    0.1530    0.7564 C   0  0  0  0  0  0  0  0  0  0  0  0
   -5.9264    1.3261    1.2477 N   0  0  0  0  0  0  0  0  0  0  0  0
   -5.3109   -1.0036    1.5539 N   0  0  0  0  0  0  0  0  0  0  0  0
   -5.2611   -2.3005    0.9017 C   0  0  0  0  0  0  0  0  0  0  0  0
   -4.3110   -2.1829   -0.2674 C   0  0  2  0  0  0  0  0  0  0  0  0
   -2.9992   -1.6378    0.2699 C   0  0  0  0  0  0  0  0  0  0  0  0
   -2.0169   -1.4870   -0.7745 N   0  0  0  0  0  0  0  0  0  0  0  0
   -0.7328   -0.9907   -0.4551 C   0  0  0  0  0  0  0  0  0  0  0  0
   -0.3680   -0.6386    0.8278 C   0  0  0  0  0  0  0  0  0  0  0  0
    0.8941   -0.1571    1.1061 C   0  0  0  0  0  0  0  0  0  0  0  0
    1.8510   -0.0032    0.1242 C   0  0  0  0  0  0  0  0  0  0  0  0
    3.1727    0.5101    0.4664 C   0  0  0  0  0  0  0  0  0  0  0  0
    3.4146    0.8083    1.6716 O   0  0  0  0  0  0  0  0  0  0  0  0
    4.2178    0.7014   -0.4629 N   0  0  0  0  0  0  0  0  0  0  0  0
    5.5297    1.2118   -0.1178 C   0  0  1  0  0  0  0  0  0  0  0  0
    6.6383    0.3174   -0.5426 C   0  0  0  0  0  0  0  0  0  0  0  0
    6.6329   -1.0563    0.0278 C   0  0  0  0  0  0  0  0  0  0  0  0
    6.7199   -1.1487    1.4836 C   0  0  0  0  0  0  0  0  0  0  0  0
    6.8072   -0.1132    2.1773 O   0  0  0  0  0  0  0  0  0  0  0  0
    6.7087   -2.3684    2.1316 O   0  0  0  0  0  0  0  0  0  0  0  0
    5.7485    2.5366   -0.8005 C   0  0  0  0  0  0  0  0  0  0  0  0
    4.8385    2.9985   -1.5271 O   0  0  0  0  0  0  0  0  0  0  0  0
    6.9099    3.2366   -0.6433 O   0  0  0  0  0  0  0  0  0  0  0  0
    1.4719   -0.3587   -1.1508 C   0  0  0  0  0  0  0  0  0  0  0  0
    0.2182   -0.8428   -1.4595 C   0  0  0  0  0  0  0  0  0  0  0  0
   -4.8625   -1.1936   -1.1789 N   0  0  0  0  0  0  0  0  0  0  0  0
   -7.2249    4.2532    0.5987 H   0  0  0  0  0  0  0  0  0  0  0  0
   -6.2409    3.9308    2.0533 H   0  0  0  0  0  0  0  0  0  0  0  0
   -6.0955    1.3912    2.2912 H   0  0  0  0  0  0  0  0  0  0  0  0
   -5.1962   -0.8884    2.5909 H   0  0  0  0  0  0  0  0  0  0  0  0
   -6.2546   -2.6618    0.5932 H   0  0  0  0  0  0  0  0  0  0  0  0
   -4.8312   -3.0440    1.6311 H   0  0  0  0  0  0  0  0  0  0  0  0
   -4.1778   -3.1431   -0.7703 H   0  0  0  0  0  0  0  0  0  0  0  0
   -3.1845   -0.6778    0.7917 H   0  0  0  0  0  0  0  0  0  0  0  0
   -2.5611   -2.3205    1.0295 H   0  0  0  0  0  0  0  0  0  0  0  0
   -2.2536   -1.7413   -1.7510 H   0  0  0  0  0  0  0  0  0  0  0  0
   -1.1268   -0.7617    1.6007 H   0  0  0  0  0  0  0  0  0  0  0  0
    1.1651    0.1150    2.1193 H   0  0  0  0  0  0  0  0  0  0  0  0
    4.0312    0.4595   -1.4591 H   0  0  0  0  0  0  0  0  0  0  0  0
    5.5827    1.4197    0.9461 H   0  0  0  0  0  0  0  0  0  0  0  0
    7.5957    0.8075   -0.2140 H   0  0  0  0  0  0  0  0  0  0  0  0
    6.7151    0.2276   -1.6450 H   0  0  0  0  0  0  0  0  0  0  0  0
    5.7924   -1.6844   -0.3500 H   0  0  0  0  0  0  0  0  0  0  0  0
    7.5529   -1.5683   -0.3852 H   0  0  0  0  0  0  0  0  0  0  0  0
    6.6462   -2.4877    3.1217 H   0  0  0  0  0  0  0  0  0  0  0  0
    7.1555    4.0255   -1.2565 H   0  0  0  0  0  0  0  0  0  0  0  0
    2.1951   -0.2514   -1.9440 H   0  0  0  0  0  0  0  0  0  0  0  0
   -0.0670   -1.1208   -2.4785 H   0  0  0  0  0  0  0  0  0  0  0  0
   -4.9533   -1.3357   -2.1965 H   0  0  0  0  0  0  0  0  0  0  0  0
  1  2  1  0
  2  3  2  0
  3  4  1  0
  4  5  2  0
  4  6  1  0
  6  7  2  0
  7  8  1  0
  7  9  1  0
  9 10  1  0
 10 11  1  0
 11 12  1  0
 12 13  1  0
 13 14  1  0
 14 15  2  0
 15 16  1  0
 16 17  2  0
 17 18  1  0
 18 19  2  0
 18 20  1  0
 20 21  1  0
 21 22  1  0
 22 23  1  0
 23 24  1  0
 24 25  2  0
 24 26  1  0
 21 27  1  0
 27 28  2  0
 27 29  1  0
 17 30  1  0
 30 31  2  0
 11 32  1  0
  8  2  1  0
 31 14  1  0
 32  6  1  0
  1 33  1  0
  1 34  1  0
  8 35  1  0
  9 36  1  0
 10 37  1  0
 10 38  1  0
 11 39  1  6
 12 40  1  0
 12 41  1  0
 13 42  1  0
 15 43  1  0
 16 44  1  0
 20 45  1  0
 21 46  1  1
 22 47  1  0
 22 48  1  0
 23 49  1  0
 23 50  1  0
 26 51  1  0
 29 52  1  0
 30 53  1  0
 31 54  1  0
 32 55  1  0
M  END
$$$$

     RDKit          3D

 55 57  0  0  0  0  0  0  0  0999 V2000
    9.1659    1.1332    0.0797 N   0  0  0  0  0  0  0  0  0  0  0  0
    7.7891    0.8914    0.2923 C   0  0  0  0  0  0  0  0  0  0  0  0
    7.0216    1.9261    0.7253 N   0  0  0  0  0  0  0  0  0  0  0  0
    5.7301    1.7160    0.9273 C   0  0  0  0  0  0  0  0  0  0  0  0
    4.9656    2.6522    1.3338 O   0  0  0  0  0  0  0  0  0  0  0  0
    5.1749    0.4700    0.7023 C   0  0  0  0  0  0  0  0  0  0  0  0
    5.9768   -0.5590    0.2640 C   0  0  0  0  0  0  0  0  0  0  0  0
    7.2976   -0.3236    0.0630 N   0  0  0  0  0  0  0  0  0  0  0  0
    5.3738   -1.8203    0.0502 N   0  0  0  0  0  0  0  0  0  0  0  0
    3.9545   -2.0242   -0.0248 C   0  0  0  0  0  0  0  0  0  0  0  0
    3.1457   -0.7711    0.0540 C   0  0  2  0  0  0  0  0  0  0  0  0
    3.0068   -0.0693   -1.3015 C   0  0  0  0  0  0  0  0  0  0  0  0
    2.1887    1.1011   -1.0354 N   0  0  0  0  0  0  0  0  0  0  0  0
    0.8320    0.9721   -0.6877 C   0  0  0  0  0  0  0  0  0  0  0  0
    0.1852   -0.2170   -0.9118 C   0  0  0  0  0  0  0  0  0  0  0  0
   -1.1462   -0.3412   -0.5477 C   0  0  0  0  0  0  0  0  0  0  0  0
   -1.7974    0.6995    0.0215 C   0  0  0  0  0  0  0  0  0  0  0  0
   -3.1928    0.6118    0.4068 C   0  0  0  0  0  0  0  0  0  0  0  0
   -3.7469    1.5493    1.0776 O   0  0  0  0  0  0  0  0  0  0  0  0
   -3.9917   -0.4864    0.0683 N   0  0  0  0  0  0  0  0  0  0  0  0
   -5.4274   -0.5398    0.4810 C   0  0  1  0  0  0  0  0  0  0  0  0
   -6.2607   -0.5974   -0.7780 C   0  0  0  0  0  0  0  0  0  0  0  0
   -7.7208   -0.6065   -0.4255 C   0  0  0  0  0  0  0  0  0  0  0  0
   -8.0421    0.6315    0.3077 C   0  0  0  0  0  0  0  0  0  0  0  0
   -7.8263    0.8130    1.5189 O   0  0  0  0  0  0  0  0  0  0  0  0
   -8.6340    1.6866   -0.4003 O   0  0  0  0  0  0  0  0  0  0  0  0
   -5.5691   -1.7030    1.3587 C   0  0  0  0  0  0  0  0  0  0  0  0
   -4.5708   -2.4595    1.5646 O   0  0  0  0  0  0  0  0  0  0  0  0
   -6.7533   -2.0119    1.9795 O   0  0  0  0  0  0  0  0  0  0  0  0
   -1.1522    1.9122    0.2542 C   0  0  0  0  0  0  0  0  0  0  0  0
    0.1565    2.0335   -0.1044 C   0  0  0  0  0  0  0  0  0  0  0  0
    3.7973    0.2322    0.9110 N   0  0  0  0  0  0  0  0  0  0  0  0
    9.6334    2.0147    0.4328 H   0  0  0  0  0  0  0  0  0  0  0  0
    9.7592    0.4391   -0.4360 H   0  0  0  0  0  0  0  0  0  0  0  0
    7.8941   -1.1107   -0.2682 H   0  0  0  0  0  0  0  0  0  0  0  0
    5.9832   -2.6471   -0.0597 H   0  0  0  0  0  0  0  0  0  0  0  0
    3.7038   -2.5827   -0.9420 H   0  0  0  0  0  0  0  0  0  0  0  0
    3.6622   -2.6565    0.8431 H   0  0  0  0  0  0  0  0  0  0  0  0
    2.1285   -0.9560    0.4402 H   0  0  0  0  0  0  0  0  0  0  0  0
    2.5465   -0.6950   -2.0651 H   0  0  0  0  0  0  0  0  0  0  0  0
    4.0176    0.2344   -1.6540 H   0  0  0  0  0  0  0  0  0  0  0  0
    2.6056    2.0476   -1.1006 H   0  0  0  0  0  0  0  0  0  0  0  0
    0.6720   -1.0884   -1.3814 H   0  0  0  0  0  0  0  0  0  0  0  0
   -1.6119   -1.3046   -0.7433 H   0  0  0  0  0  0  0  0  0  0  0  0
   -3.6221   -1.2734   -0.4642 H   0  0  0  0  0  0  0  0  0  0  0  0
   -5.6026    0.3861    1.0413 H   0  0  0  0  0  0  0  0  0  0  0  0
   -5.9795   -1.5247   -1.3595 H   0  0  0  0  0  0  0  0  0  0  0  0
   -5.9929    0.2716   -1.4302 H   0  0  0  0  0  0  0  0  0  0  0  0
   -8.3533   -0.6864   -1.3613 H   0  0  0  0  0  0  0  0  0  0  0  0
   -7.9329   -1.5015    0.1823 H   0  0  0  0  0  0  0  0  0  0  0  0
   -8.7713    2.5736    0.0545 H   0  0  0  0  0  0  0  0  0  0  0  0
   -6.9358   -2.9443    2.3401 H   0  0  0  0  0  0  0  0  0  0  0  0
   -1.6695    2.7470    0.7106 H   0  0  0  0  0  0  0  0  0  0  0  0
    0.6369    2.9933    0.0875 H   0  0  0  0  0  0  0  0  0  0  0  0
    3.2984    0.7625    1.6439 H   0  0  0  0  0  0  0  0  0  0  0  0
  1  2  1  0
  2  3  2  0
  3  4  1  0
  4  5  2  0
  4  6  1  0
  6  7  2  0
  7  8  1  0
  7  9  1  0
  9 10  1  0
 10 11  1  0
 11 12  1  0
 12 13  1  0
 13 14  1  0
 14 15  2  0
 15 16  1  0
 16 17  2  0
 17 18  1  0
 18 19  2  0
 18 20  1  0
 20 21  1  0
 21 22  1  0
 22 23  1  0
 23 24  1  0
 24 25  2  0
 24 26  1  0
 21 27  1  0
 27 28  2  0
 27 29  1  0
 17 30  1  0
 30 31  2  0
 11 32  1  0
  8  2  1  0
 31 14  1  0
 32  6  1  0
  1 33  1  0
  1 34  1  0
  8 35  1  0
  9 36  1  0
 10 37  1  0
 10 38  1  0
 11 39  1  1
 12 40  1  0
 12 41  1  0
 13 42  1  0
 15 43  1  0
 16 44  1  0
 20 45  1  0
 21 46  1  1
 22 47  1  0
 22 48  1  0
 23 49  1  0
 23 50  1  0
 26 51  1  0
 29 52  1  0
 30 53  1  0
 31 54  1  0
 32 55  1  0
M  END
$$$$

     RDKit          3D

 55 57  0  0  0  0  0  0  0  0999 V2000
    9.3999    1.1690   -1.5035 N   0  0  0  0  0  0  0  0  0  0  0  0
    8.1489    0.5423   -1.3223 C   0  0  0  0  0  0  0  0  0  0  0  0
    7.8896   -0.7103   -1.7550 N   0  0  0  0  0  0  0  0  0  0  0  0
    6.6960   -1.3149   -1.5844 C   0  0  0  0  0  0  0  0  0  0  0  0
    6.4445   -2.4793   -1.9833 O   0  0  0  0  0  0  0  0  0  0  0  0
    5.6869   -0.6280   -0.9384 C   0  0  0  0  0  0  0  0  0  0  0  0
    5.9445    0.6516   -0.4938 C   0  0  0  0  0  0  0  0  0  0  0  0
    7.1472    1.1988   -0.6915 N   0  0  0  0  0  0  0  0  0  0  0  0
    4.8856    1.3379    0.1679 N   0  0  0  0  0  0  0  0  0  0  0  0
    3.4997    1.0048   -0.0195 C   0  0  0  0  0  0  0  0  0  0  0  0
    3.2719   -0.4863   -0.1724 C   0  0  2  0  0  0  0  0  0  0  0  0
    2.8768   -1.0404    1.2042 C   0  0  0  0  0  0  0  0  0  0  0  0
    1.6814   -0.4080    1.6747 N   0  0  0  0  0  0  0  0  0  0  0  0
    0.4030   -0.5432    1.0967 C   0  0  0  0  0  0  0  0  0  0  0  0
    0.1180   -1.4981    0.1448 C   0  0  0  0  0  0  0  0  0  0  0  0
   -1.1480   -1.6000   -0.4239 C   0  0  0  0  0  0  0  0  0  0  0  0
   -2.1685   -0.7484   -0.0563 C   0  0  0  0  0  0  0  0  0  0  0  0
   -3.4802   -0.8873   -0.6744 C   0  0  0  0  0  0  0  0  0  0  0  0
   -3.7296   -1.8943   -1.3875 O   0  0  0  0  0  0  0  0  0  0  0  0
   -4.5288    0.0523   -0.5315 N   0  0  0  0  0  0  0  0  0  0  0  0
   -5.8325   -0.0396   -1.1177 C   0  0  1  0  0  0  0  0  0  0  0  0
   -6.8873   -0.5310   -0.2125 C   0  0  0  0  0  0  0  0  0  0  0  0
   -7.1906    0.1867    1.0328 C   0  0  0  0  0  0  0  0  0  0  0  0
   -6.1934    0.2436    2.0840 C   0  0  0  0  0  0  0  0  0  0  0  0
   -5.1452   -0.4342    2.0733 O   0  0  0  0  0  0  0  0  0  0  0  0
   -6.3830    1.0838    3.1710 O   0  0  0  0  0  0  0  0  0  0  0  0
   -6.2084    1.1817   -1.8741 C   0  0  0  0  0  0  0  0  0  0  0  0
   -5.4873    2.1788   -1.9963 O   0  0  0  0  0  0  0  0  0  0  0  0
   -7.4594    1.1854   -2.4787 O   0  0  0  0  0  0  0  0  0  0  0  0
   -1.8771    0.1988    0.8924 C   0  0  0  0  0  0  0  0  0  0  0  0
   -0.6143    0.3114    1.4691 C   0  0  0  0  0  0  0  0  0  0  0  0
    4.4050   -1.1721   -0.7108 N   0  0  0  0  0  0  0  0  0  0  0  0
   10.0040    1.3485   -0.6909 H   0  0  0  0  0  0  0  0  0  0  0  0
    9.6898    1.4393   -2.4620 H   0  0  0  0  0  0  0  0  0  0  0  0
    7.3122    2.1786   -0.3399 H   0  0  0  0  0  0  0  0  0  0  0  0
    5.1323    2.1107    0.8107 H   0  0  0  0  0  0  0  0  0  0  0  0
    3.1274    1.5704   -0.9082 H   0  0  0  0  0  0  0  0  0  0  0  0
    2.9316    1.4081    0.8558 H   0  0  0  0  0  0  0  0  0  0  0  0
    2.4229   -0.6015   -0.8706 H   0  0  0  0  0  0  0  0  0  0  0  0
    2.6983   -2.1369    1.1437 H   0  0  0  0  0  0  0  0  0  0  0  0
    3.7335   -0.9081    1.8824 H   0  0  0  0  0  0  0  0  0  0  0  0
    1.7879    0.2100    2.5276 H   0  0  0  0  0  0  0  0  0  0  0  0
    0.8394   -2.2081   -0.1985 H   0  0  0  0  0  0  0  0  0  0  0  0
   -1.3803   -2.3575   -1.1811 H   0  0  0  0  0  0  0  0  0  0  0  0
   -4.3266    0.9110    0.0271 H   0  0  0  0  0  0  0  0  0  0  0  0
   -5.7658   -0.8520   -1.9342 H   0  0  0  0  0  0  0  0  0  0  0  0
   -7.8503   -0.5423   -0.8212 H   0  0  0  0  0  0  0  0  0  0  0  0
   -6.6992   -1.6227   -0.0354 H   0  0  0  0  0  0  0  0  0  0  0  0
   -7.6169    1.2164    0.7916 H   0  0  0  0  0  0  0  0  0  0  0  0
   -8.1013   -0.3252    1.4865 H   0  0  0  0  0  0  0  0  0  0  0  0
   -5.5390    1.4599    3.6326 H   0  0  0  0  0  0  0  0  0  0  0  0
   -7.7138    1.8068   -3.2347 H   0  0  0  0  0  0  0  0  0  0  0  0
   -2.6767    0.8789    1.1925 H   0  0  0  0  0  0  0  0  0  0  0  0
   -0.4411    1.0867    2.2211 H   0  0  0  0  0  0  0  0  0  0  0  0
    4.2667   -2.1824   -0.9614 H   0  0  0  0  0  0  0  0  0  0  0  0
  1  2  1  0
  2  3  2  0
  3  4  1  0
  4  5  2  0
  4  6  1  0
  6  7  2  0
  7  8  1  0
  7  9  1  0
  9 10  1  0
 10 11  1  0
 11 12  1  0
 12 13  1  0
 13 14  1  0
 14 15  2  0
 15 16  1  0
 16 17  2  0
 17 18  1  0
 18 19  2  0
 18 20  1  0
 20 21  1  0
 21 22  1  0
 22 23  1  0
 23 24  1  0
 24 25  2  0
 24 26  1  0
 21 27  1  0
 27 28  2  0
 27 29  1  0
 17 30  1  0
 30 31  2  0
 11 32  1  0
  8  2  1  0
 31 14  1  0
 32  6  1  0
  1 33  1  0
  1 34  1  0
  8 35  1  0
  9 36  1  0
 10 37  1  0
 10 38  1  0
 11 39  1  6
 12 40  1  0
 12 41  1  0
 13 42  1  0
 15 43  1  0
 16 44  1  0
 20 45  1  0
 21 46  1  6
 22 47  1  0
 22 48  1  0
 23 49  1  0
 23 50  1  0
 26 51  1  0
 29 52  1  0
 30 53  1  0
 31 54  1  0
 32 55  1  0
M  END
$$$$

     RDKit          3D

 55 57  0  0  0  0  0  0  0  0999 V2000
    9.0355    1.9635    0.8827 N   0  0  0  0  0  0  0  0  0  0  0  0
    7.6540    2.2497    0.6784 C   0  0  0  0  0  0  0  0  0  0  0  0
    7.1861    2.6655   -0.5113 N   0  0  0  0  0  0  0  0  0  0  0  0
    5.8856    2.9393   -0.7131 C   0  0  0  0  0  0  0  0  0  0  0  0
    5.4269    3.3267   -1.8082 O   0  0  0  0  0  0  0  0  0  0  0  0
    5.0003    2.7853    0.3481 C   0  0  0  0  0  0  0  0  0  0  0  0
    5.5045    2.3622    1.5413 C   0  0  0  0  0  0  0  0  0  0  0  0
    6.8220    2.0926    1.7185 N   0  0  0  0  0  0  0  0  0  0  0  0
    4.6173    2.1994    2.6394 N   0  0  0  0  0  0  0  0  0  0  0  0
    3.2273    1.9371    2.3593 C   0  0  0  0  0  0  0  0  0  0  0  0
    2.6876    2.8552    1.2986 C   0  0  2  0  0  0  0  0  0  0  0  0
    1.3875    2.3204    0.7992 C   0  0  0  0  0  0  0  0  0  0  0  0
    1.5711    1.0174    0.2258 N   0  0  0  0  0  0  0  0  0  0  0  0
    0.4055    0.3312   -0.2520 C   0  0  0  0  0  0  0  0  0  0  0  0
   -0.8452    0.8909   -0.1581 C   0  0  0  0  0  0  0  0  0  0  0  0
   -1.9257    0.1779   -0.6343 C   0  0  0  0  0  0  0  0  0  0  0  0
   -1.8535   -1.0556   -1.1994 C   0  0  0  0  0  0  0  0  0  0  0  0
   -3.0346   -1.7622   -1.6761 C   0  0  0  0  0  0  0  0  0  0  0  0
   -2.8568   -2.8013   -2.3976 O   0  0  0  0  0  0  0  0  0  0  0  0
   -4.3554   -1.3885   -1.4023 N   0  0  0  0  0  0  0  0  0  0  0  0
   -5.4437   -2.1796   -1.9370 C   0  0  1  0  0  0  0  0  0  0  0  0
   -6.1442   -2.7869   -0.7204 C   0  0  0  0  0  0  0  0  0  0  0  0
   -5.0914   -3.6271   -0.0135 C   0  0  0  0  0  0  0  0  0  0  0  0
   -5.5913   -4.2950    1.1886 C   0  0  0  0  0  0  0  0  0  0  0  0
   -6.7831   -4.1383    1.5333 O   0  0  0  0  0  0  0  0  0  0  0  0
   -4.7346   -5.0919    1.9273 O   0  0  0  0  0  0  0  0  0  0  0  0
   -6.3636   -1.3885   -2.7608 C   0  0  0  0  0  0  0  0  0  0  0  0
   -6.1648   -0.1630   -2.9400 O   0  0  0  0  0  0  0  0  0  0  0  0
   -7.4686   -1.9650   -3.3596 O   0  0  0  0  0  0  0  0  0  0  0  0
   -0.5835   -1.6175   -1.2920 C   0  0  0  0  0  0  0  0  0  0  0  0
    0.5074   -0.9228   -0.8228 C   0  0  0  0  0  0  0  0  0  0  0  0
    3.6179    3.0549    0.2141 N   0  0  0  0  0  0  0  0  0  0  0  0
    9.4696    1.0437    0.6801 H   0  0  0  0  0  0  0  0  0  0  0  0
    9.6120    2.7684    1.2652 H   0  0  0  0  0  0  0  0  0  0  0  0
    7.1694    1.7697    2.6520 H   0  0  0  0  0  0  0  0  0  0  0  0
    4.9367    2.2627    3.6177 H   0  0  0  0  0  0  0  0  0  0  0  0
    3.0926    0.8975    2.0392 H   0  0  0  0  0  0  0  0  0  0  0  0
    2.6041    2.1179    3.2678 H   0  0  0  0  0  0  0  0  0  0  0  0
    2.4975    3.8635    1.7327 H   0  0  0  0  0  0  0  0  0  0  0  0
    0.6357    2.2022    1.6152 H   0  0  0  0  0  0  0  0  0  0  0  0
    0.9335    3.0176    0.0534 H   0  0  0  0  0  0  0  0  0  0  0  0
    2.5101    0.5966    0.1565 H   0  0  0  0  0  0  0  0  0  0  0  0
   -0.9539    1.8718    0.2811 H   0  0  0  0  0  0  0  0  0  0  0  0
   -2.9387    0.6149   -0.5665 H   0  0  0  0  0  0  0  0  0  0  0  0
   -4.5605   -0.5508   -0.8201 H   0  0  0  0  0  0  0  0  0  0  0  0
   -5.0392   -3.0055   -2.5767 H   0  0  0  0  0  0  0  0  0  0  0  0
   -6.4438   -2.0071   -0.0045 H   0  0  0  0  0  0  0  0  0  0  0  0
   -7.0231   -3.3481   -1.0356 H   0  0  0  0  0  0  0  0  0  0  0  0
   -4.6728   -4.2972   -0.7794 H   0  0  0  0  0  0  0  0  0  0  0  0
   -4.2546   -2.9050    0.2229 H   0  0  0  0  0  0  0  0  0  0  0  0
   -4.9988   -5.6019    2.7349 H   0  0  0  0  0  0  0  0  0  0  0  0
   -8.1062   -1.4542   -3.9566 H   0  0  0  0  0  0  0  0  0  0  0  0
   -0.5226   -2.6001   -1.7427 H   0  0  0  0  0  0  0  0  0  0  0  0
    1.4961   -1.3710   -0.8998 H   0  0  0  0  0  0  0  0  0  0  0  0
    3.2604    3.4082   -0.6931 H   0  0  0  0  0  0  0  0  0  0  0  0
  1  2  1  0
  2  3  2  0
  3  4  1  0
  4  5  2  0
  4  6  1  0
  6  7  2  0
  7  8  1  0
  7  9  1  0
  9 10  1  0
 10 11  1  0
 11 12  1  0
 12 13  1  0
 13 14  1  0
 14 15  2  0
 15 16  1  0
 16 17  2  0
 17 18  1  0
 18 19  2  0
 18 20  1  0
 20 21  1  0
 21 22  1  0
 22 23  1  0
 23 24  1  0
 24 25  2  0
 24 26  1  0
 21 27  1  0
 27 28  2  0
 27 29  1  0
 17 30  1  0
 30 31  2  0
 11 32  1  0
  8  2  1  0
 31 14  1  0
 32  6  1  0
  1 33  1  0
  1 34  1  0
  8 35  1  0
  9 36  1  0
 10 37  1  0
 10 38  1  0
 11 39  1  1
 12 40  1  0
 12 41  1  0
 13 42  1  0
 15 43  1  0
 16 44  1  0
 20 45  1  0
 21 46  1  6
 22 47  1  0
 22 48  1  0
 23 49  1  0
 23 50  1  0
 26 51  1  0
 29 52  1  0
 30 53  1  0
 31 54  1  0
 32 55  1  0
M  END
$$$$

     RDKit          3D

 55 57  0  0  0  0  0  0  0  0999 V2000
    9.8329   -1.1210    0.7989 N   0  0  0  0  0  0  0  0  0  0  0  0
    8.4903   -0.9034    0.4294 C   0  0  0  0  0  0  0  0  0  0  0  0
    7.5882   -1.8774    0.6583 N   0  0  0  0  0  0  0  0  0  0  0  0
    6.2872   -1.7718    0.3452 C   0  0  0  0  0  0  0  0  0  0  0  0
    5.4436   -2.6811    0.5586 O   0  0  0  0  0  0  0  0  0  0  0  0
    5.8822   -0.5836   -0.2445 C   0  0  0  0  0  0  0  0  0  0  0  0
    6.7791    0.4346   -0.4934 C   0  0  0  0  0  0  0  0  0  0  0  0
    8.0569    0.2428   -0.1483 N   0  0  0  0  0  0  0  0  0  0  0  0
    6.3236    1.6572   -1.1086 N   0  0  0  0  0  0  0  0  0  0  0  0
    4.9348    2.0328   -0.9386 C   0  0  0  0  0  0  0  0  0  0  0  0
    4.0909    0.8158   -1.2884 C   0  0  2  0  0  0  0  0  0  0  0  0
    2.6899    1.1188   -0.7477 C   0  0  0  0  0  0  0  0  0  0  0  0
    1.8419   -0.0088   -1.0539 N   0  0  0  0  0  0  0  0  0  0  0  0
    0.4835    0.0237   -0.6491 C   0  0  0  0  0  0  0  0  0  0  0  0
   -0.3836   -1.0216   -0.9120 C   0  0  0  0  0  0  0  0  0  0  0  0
   -1.6924   -0.9270   -0.4899 C   0  0  0  0  0  0  0  0  0  0  0  0
   -2.1655    0.1708    0.1834 C   0  0  0  0  0  0  0  0  0  0  0  0
   -3.5461    0.2821    0.6329 C   0  0  0  0  0  0  0  0  0  0  0  0
   -3.9176    1.2981    1.3247 O   0  0  0  0  0  0  0  0  0  0  0  0
   -4.4891   -0.7233    0.3137 N   0  0  0  0  0  0  0  0  0  0  0  0
   -5.8900   -0.5556    0.8021 C   0  0  1  0  0  0  0  0  0  0  0  0
   -6.7161   -0.5851   -0.4521 C   0  0  0  0  0  0  0  0  0  0  0  0
   -8.1669   -0.4260   -0.1603 C   0  0  0  0  0  0  0  0  0  0  0  0
   -8.4339    0.8785    0.4745 C   0  0  0  0  0  0  0  0  0  0  0  0
   -7.5101    1.7071    0.5980 O   0  0  0  0  0  0  0  0  0  0  0  0
   -9.7209    1.1968    0.9421 O   0  0  0  0  0  0  0  0  0  0  0  0
   -6.1820   -1.7156    1.6795 C   0  0  0  0  0  0  0  0  0  0  0  0
   -5.3228   -2.6076    1.8320 O   0  0  0  0  0  0  0  0  0  0  0  0
   -7.3903   -1.8120    2.3257 O   0  0  0  0  0  0  0  0  0  0  0  0
   -1.3087    1.2157    0.4490 C   0  0  0  0  0  0  0  0  0  0  0  0
   -0.0014    1.1222    0.0279 C   0  0  0  0  0  0  0  0  0  0  0  0
    4.5385   -0.3826   -0.6067 N   0  0  0  0  0  0  0  0  0  0  0  0
   10.1696   -0.7984    1.7173 H   0  0  0  0  0  0  0  0  0  0  0  0
   10.4705   -1.6018    0.1483 H   0  0  0  0  0  0  0  0  0  0  0  0
    8.7477    1.0081   -0.3322 H   0  0  0  0  0  0  0  0  0  0  0  0
    7.0210    2.2075   -1.6453 H   0  0  0  0  0  0  0  0  0  0  0  0
    4.6940    2.3069    0.0989 H   0  0  0  0  0  0  0  0  0  0  0  0
    4.6640    2.8333   -1.6433 H   0  0  0  0  0  0  0  0  0  0  0  0
    3.9906    0.6714   -2.3772 H   0  0  0  0  0  0  0  0  0  0  0  0
    2.7169    1.2211    0.3560 H   0  0  0  0  0  0  0  0  0  0  0  0
    2.3049    2.0627   -1.1683 H   0  0  0  0  0  0  0  0  0  0  0  0
    2.1777   -0.8669   -1.5681 H   0  0  0  0  0  0  0  0  0  0  0  0
   -0.0164   -1.9061   -1.4504 H   0  0  0  0  0  0  0  0  0  0  0  0
   -2.3367   -1.7833   -0.7231 H   0  0  0  0  0  0  0  0  0  0  0  0
   -4.2529   -1.5722   -0.2451 H   0  0  0  0  0  0  0  0  0  0  0  0
   -5.8969    0.3857    1.3547 H   0  0  0  0  0  0  0  0  0  0  0  0
   -6.5230   -1.6039   -0.9094 H   0  0  0  0  0  0  0  0  0  0  0  0
   -6.3338    0.1732   -1.1748 H   0  0  0  0  0  0  0  0  0  0  0  0
   -8.7332   -0.3868   -1.1376 H   0  0  0  0  0  0  0  0  0  0  0  0
   -8.5133   -1.2979    0.4349 H   0  0  0  0  0  0  0  0  0  0  0  0
   -9.8153    1.9040    1.6770 H   0  0  0  0  0  0  0  0  0  0  0  0
   -7.7814   -2.6894    2.6476 H   0  0  0  0  0  0  0  0  0  0  0  0
   -1.6476    2.1083    0.9834 H   0  0  0  0  0  0  0  0  0  0  0  0
    0.6482    1.9748    0.2588 H   0  0  0  0  0  0  0  0  0  0  0  0
    3.8195   -1.1146   -0.3845 H   0  0  0  0  0  0  0  0  0  0  0  0
  1  2  1  0
  2  3  2  0
  3  4  1  0
  4  5  2  0
  4  6  1  0
  6  7  2  0
  7  8  1  0
  7  9  1  0
  9 10  1  0
 10 11  1  0
 11 12  1  0
 12 13  1  0
 13 14  1  0
 14 15  2  0
 15 16  1  0
 16 17  2  0
 17 18  1  0
 18 19  2  0
 18 20  1  0
 20 21  1  0
 21 22  1  0
 22 23  1  0
 23 24  1  0
 24 25  2  0
 24 26  1  0
 21 27  1  0
 27 28  2  0
 27 29  1  0
 17 30  1  0
 30 31  2  0
 11 32  1  0
  8  2  1  0
 31 14  1  0
 32  6  1  0
  1 33  1  0
  1 34  1  0
  8 35  1  0
  9 36  1  0
 10 37  1  0
 10 38  1  0
 11 39  1  6
 12 40  1  0
 12 41  1  0
 13 42  1  0
 15 43  1  0
 16 44  1  0
 20 45  1  0
 21 46  1  1
 22 47  1  0
 22 48  1  0
 23 49  1  0
 23 50  1  0
 26 51  1  0
 29 52  1  0
 30 53  1  0
 31 54  1  0
 32 55  1  0
M  END
$$$$

     RDKit          3D

 55 57  0  0  0  0  0  0  0  0999 V2000
    9.7607    1.4220    0.3529 N   0  0  0  0  0  0  0  0  0  0  0  0
    8.4067    1.0249    0.1138 C   0  0  0  0  0  0  0  0  0  0  0  0
    7.7111    1.4876   -0.9336 N   0  0  0  0  0  0  0  0  0  0  0  0
    6.4407    1.1057   -1.1477 C   0  0  0  0  0  0  0  0  0  0  0  0
    5.7344    1.4999   -2.1063 O   0  0  0  0  0  0  0  0  0  0  0  0
    5.8325    0.2165   -0.2723 C   0  0  0  0  0  0  0  0  0  0  0  0
    6.5418   -0.2597    0.8021 C   0  0  0  0  0  0  0  0  0  0  0  0
    7.8033    0.1627    0.9550 N   0  0  0  0  0  0  0  0  0  0  0  0
    5.9401   -1.1750    1.7209 N   0  0  0  0  0  0  0  0  0  0  0  0
    4.6713   -1.7649    1.3687 C   0  0  0  0  0  0  0  0  0  0  0  0
    3.8172   -0.6763    0.7738 C   0  0  2  0  0  0  0  0  0  0  0  0
    2.3838   -1.0793    0.5392 C   0  0  0  0  0  0  0  0  0  0  0  0
    1.7157    0.0708   -0.0274 N   0  0  0  0  0  0  0  0  0  0  0  0
    0.3004    0.0106   -0.2871 C   0  0  0  0  0  0  0  0  0  0  0  0
   -0.3848   -1.1388    0.0214 C   0  0  0  0  0  0  0  0  0  0  0  0
   -1.7596   -1.1857   -0.2210 C   0  0  0  0  0  0  0  0  0  0  0  0
   -2.4048   -0.0986   -0.7562 C   0  0  0  0  0  0  0  0  0  0  0  0
   -3.8607   -0.1414   -0.9907 C   0  0  0  0  0  0  0  0  0  0  0  0
   -4.3694    0.6756   -1.8342 O   0  0  0  0  0  0  0  0  0  0  0  0
   -4.7316   -1.0312   -0.3359 N   0  0  0  0  0  0  0  0  0  0  0  0
   -6.1423   -1.0742   -0.5721 C   0  0  1  0  0  0  0  0  0  0  0  0
   -6.9195   -0.1591    0.2876 C   0  0  0  0  0  0  0  0  0  0  0  0
   -6.6070    1.2877    0.2072 C   0  0  0  0  0  0  0  0  0  0  0  0
   -7.5187    1.9932    1.1469 C   0  0  0  0  0  0  0  0  0  0  0  0
   -8.7727    1.8897    1.1157 O   0  0  0  0  0  0  0  0  0  0  0  0
   -6.9577    2.8179    2.1266 O   0  0  0  0  0  0  0  0  0  0  0  0
   -6.5410   -1.1314   -1.9965 C   0  0  0  0  0  0  0  0  0  0  0  0
   -5.6560   -1.2040   -2.8738 O   0  0  0  0  0  0  0  0  0  0  0  0
   -7.8578   -1.1073   -2.4104 O   0  0  0  0  0  0  0  0  0  0  0  0
   -1.7053    1.0398   -1.0582 C   0  0  0  0  0  0  0  0  0  0  0  0
   -0.3504    1.1019   -0.8264 C   0  0  0  0  0  0  0  0  0  0  0  0
    4.4820   -0.2332   -0.4265 N   0  0  0  0  0  0  0  0  0  0  0  0
   10.0633    2.4070    0.2388 H   0  0  0  0  0  0  0  0  0  0  0  0
   10.4661    0.7193    0.6464 H   0  0  0  0  0  0  0  0  0  0  0  0
    8.3605   -0.1892    1.7657 H   0  0  0  0  0  0  0  0  0  0  0  0
    6.4180   -1.3954    2.6079 H   0  0  0  0  0  0  0  0  0  0  0  0
    4.8047   -2.6372    0.7170 H   0  0  0  0  0  0  0  0  0  0  0  0
    4.2122   -2.1264    2.3298 H   0  0  0  0  0  0  0  0  0  0  0  0
    3.8693    0.1828    1.5085 H   0  0  0  0  0  0  0  0  0  0  0  0
    2.3906   -1.8495   -0.2747 H   0  0  0  0  0  0  0  0  0  0  0  0
    1.9142   -1.4829    1.4391 H   0  0  0  0  0  0  0  0  0  0  0  0
    2.2198    0.9651   -0.2650 H   0  0  0  0  0  0  0  0  0  0  0  0
    0.1218   -2.0106    0.4483 H   0  0  0  0  0  0  0  0  0  0  0  0
   -2.3330   -2.0669    0.0035 H   0  0  0  0  0  0  0  0  0  0  0  0
   -4.2736   -1.6921    0.3713 H   0  0  0  0  0  0  0  0  0  0  0  0
   -6.4377   -2.1361   -0.2158 H   0  0  0  0  0  0  0  0  0  0  0  0
   -8.0215   -0.2892    0.1621 H   0  0  0  0  0  0  0  0  0  0  0  0
   -6.7281   -0.4656    1.3564 H   0  0  0  0  0  0  0  0  0  0  0  0
   -5.5830    1.5625    0.4595 H   0  0  0  0  0  0  0  0  0  0  0  0
   -6.8968    1.6179   -0.8266 H   0  0  0  0  0  0  0  0  0  0  0  0
   -7.4953    3.4337    2.7286 H   0  0  0  0  0  0  0  0  0  0  0  0
   -8.1397   -0.6045   -3.2613 H   0  0  0  0  0  0  0  0  0  0  0  0
   -2.2134    1.9058   -1.4869 H   0  0  0  0  0  0  0  0  0  0  0  0
    0.2063    2.0122   -1.0657 H   0  0  0  0  0  0  0  0  0  0  0  0
    4.0726   -0.2069   -1.3800 H   0  0  0  0  0  0  0  0  0  0  0  0
  1  2  1  0
  2  3  2  0
  3  4  1  0
  4  5  2  0
  4  6  1  0
  6  7  2  0
  7  8  1  0
  7  9  1  0
  9 10  1  0
 10 11  1  0
 11 12  1  0
 12 13  1  0
 13 14  1  0
 14 15  2  0
 15 16  1  0
 16 17  2  0
 17 18  1  0
 18 19  2  0
 18 20  1  0
 20 21  1  0
 21 22  1  0
 22 23  1  0
 23 24  1  0
 24 25  2  0
 24 26  1  0
 21 27  1  0
 27 28  2  0
 27 29  1  0
 17 30  1  0
 30 31  2  0
 11 32  1  0
  8  2  1  0
 31 14  1  0
 32  6  1  0
  1 33  1  0
  1 34  1  0
  8 35  1  0
  9 36  1  0
 10 37  1  0
 10 38  1  0
 11 39  1  1
 12 40  1  0
 12 41  1  0
 13 42  1  0
 15 43  1  0
 16 44  1  0
 20 45  1  0
 21 46  1  1
 22 47  1  0
 22 48  1  0
 23 49  1  0
 23 50  1  0
 26 51  1  0
 29 52  1  0
 30 53  1  0
 31 54  1  0
 32 55  1  0
M  END
$$$$

     RDKit          3D

 55 57  0  0  0  0  0  0  0  0999 V2000
   -5.8428   -3.1512   -1.6577 N   0  0  0  0  0  0  0  0  0  0  0  0
   -5.1723   -2.1727   -0.8520 C   0  0  0  0  0  0  0  0  0  0  0  0
   -3.8655   -2.2565   -0.5992 N   0  0  0  0  0  0  0  0  0  0  0  0
   -3.1732   -1.3643    0.1547 C   0  0  0  0  0  0  0  0  0  0  0  0
   -1.9605   -1.4674    0.3740 O   0  0  0  0  0  0  0  0  0  0  0  0
   -3.8567   -0.3096    0.6910 C   0  0  0  0  0  0  0  0  0  0  0  0
   -5.2050   -0.2264    0.4282 C   0  0  0  0  0  0  0  0  0  0  0  0
   -5.8617   -1.1439   -0.3337 N   0  0  0  0  0  0  0  0  0  0  0  0
   -5.9146    0.8753    1.0012 N   0  0  0  0  0  0  0  0  0  0  0  0
   -5.2436    2.1251    1.1713 C   0  0  0  0  0  0  0  0  0  0  0  0
   -3.8349    1.9887    1.7070 C   0  0  2  0  0  0  0  0  0  0  0  0
   -3.0141    3.1237    1.1783 C   0  0  0  0  0  0  0  0  0  0  0  0
   -1.6605    3.0475    1.6327 N   0  0  0  0  0  0  0  0  0  0  0  0
   -0.7158    2.2170    1.0154 C   0  0  0  0  0  0  0  0  0  0  0  0
   -0.9814    1.6135   -0.1878 C   0  0  0  0  0  0  0  0  0  0  0  0
   -0.0033    0.8120   -0.7682 C   0  0  0  0  0  0  0  0  0  0  0  0
    1.2371    0.5773   -0.2081 C   0  0  0  0  0  0  0  0  0  0  0  0
    2.1936   -0.2723   -0.8939 C   0  0  0  0  0  0  0  0  0  0  0  0
    1.8893   -0.7192   -2.0248 O   0  0  0  0  0  0  0  0  0  0  0  0
    3.4479   -0.6208   -0.3532 N   0  0  0  0  0  0  0  0  0  0  0  0
    4.3790   -1.4880   -1.0993 C   0  0  1  0  0  0  0  0  0  0  0  0
    5.5820   -0.7153   -1.4796 C   0  0  0  0  0  0  0  0  0  0  0  0
    6.3965   -0.1152   -0.3984 C   0  0  0  0  0  0  0  0  0  0  0  0
    6.9804   -1.0297    0.5760 C   0  0  0  0  0  0  0  0  0  0  0  0
    6.3904   -1.2474    1.6615 O   0  0  0  0  0  0  0  0  0  0  0  0
    8.1815   -1.7000    0.3847 O   0  0  0  0  0  0  0  0  0  0  0  0
    4.5985   -2.7098   -0.3119 C   0  0  0  0  0  0  0  0  0  0  0  0
    4.0347   -2.9599    0.7844 O   0  0  0  0  0  0  0  0  0  0  0  0
    5.4879   -3.6769   -0.7877 O   0  0  0  0  0  0  0  0  0  0  0  0
    1.4843    1.1968    1.0084 C   0  0  0  0  0  0  0  0  0  0  0  0
    0.5397    1.9922    1.6045 C   0  0  0  0  0  0  0  0  0  0  0  0
   -3.2679    0.7081    1.5053 N   0  0  0  0  0  0  0  0  0  0  0  0
   -6.8827   -3.1728   -1.6570 H   0  0  0  0  0  0  0  0  0  0  0  0
   -5.3306   -3.8397   -2.2424 H   0  0  0  0  0  0  0  0  0  0  0  0
   -6.8861   -1.0331   -0.4995 H   0  0  0  0  0  0  0  0  0  0  0  0
   -6.9282    0.7263    1.2820 H   0  0  0  0  0  0  0  0  0  0  0  0
   -5.1641    2.6694    0.1796 H   0  0  0  0  0  0  0  0  0  0  0  0
   -5.7971    2.8185    1.8195 H   0  0  0  0  0  0  0  0  0  0  0  0
   -3.9664    2.0991    2.8389 H   0  0  0  0  0  0  0  0  0  0  0  0
   -3.0637    3.1737    0.0622 H   0  0  0  0  0  0  0  0  0  0  0  0
   -3.4833    4.1045    1.5040 H   0  0  0  0  0  0  0  0  0  0  0  0
   -1.3920    3.6519    2.4680 H   0  0  0  0  0  0  0  0  0  0  0  0
   -1.9450    1.7436   -0.7098 H   0  0  0  0  0  0  0  0  0  0  0  0
   -0.2221    0.3421   -1.7152 H   0  0  0  0  0  0  0  0  0  0  0  0
    3.7105   -0.2573    0.5853 H   0  0  0  0  0  0  0  0  0  0  0  0
    3.8650   -1.7512   -2.0885 H   0  0  0  0  0  0  0  0  0  0  0  0
    6.2507   -1.2833   -2.1941 H   0  0  0  0  0  0  0  0  0  0  0  0
    5.2181    0.1473   -2.1185 H   0  0  0  0  0  0  0  0  0  0  0  0
    5.8371    0.6834    0.1418 H   0  0  0  0  0  0  0  0  0  0  0  0
    7.2562    0.4177   -0.9031 H   0  0  0  0  0  0  0  0  0  0  0  0
    8.7263   -1.9061    1.2259 H   0  0  0  0  0  0  0  0  0  0  0  0
    6.1191   -4.1850   -0.1513 H   0  0  0  0  0  0  0  0  0  0  0  0
    2.4596    1.0175    1.4534 H   0  0  0  0  0  0  0  0  0  0  0  0
    0.7335    2.4620    2.5333 H   0  0  0  0  0  0  0  0  0  0  0  0
   -2.3638    0.4408    1.9778 H   0  0  0  0  0  0  0  0  0  0  0  0
  1  2  1  0
  2  3  2  0
  3  4  1  0
  4  5  2  0
  4  6  1  0
  6  7  2  0
  7  8  1  0
  7  9  1  0
  9 10  1  0
 10 11  1  0
 11 12  1  0
 12 13  1  0
 13 14  1  0
 14 15  2  0
 15 16  1  0
 16 17  2  0
 17 18  1  0
 18 19  2  0
 18 20  1  0
 20 21  1  0
 21 22  1  0
 22 23  1  0
 23 24  1  0
 24 25  2  0
 24 26  1  0
 21 27  1  0
 27 28  2  0
 27 29  1  0
 17 30  1  0
 30 31  2  0
 11 32  1  0
  8  2  1  0
 31 14  1  0
 32  6  1  0
  1 33  1  0
  1 34  1  0
  8 35  1  0
  9 36  1  0
 10 37  1  0
 10 38  1  0
 11 39  1  1
 12 40  1  0
 12 41  1  0
 13 42  1  0
 15 43  1  0
 16 44  1  0
 20 45  1  0
 21 46  1  6
 22 47  1  0
 22 48  1  0
 23 49  1  0
 23 50  1  0
 26 51  1  0
 29 52  1  0
 30 53  1  0
 31 54  1  0
 32 55  1  0
M  END
$$$$

     RDKit          3D

 55 57  0  0  0  0  0  0  0  0999 V2000
    9.4737    1.1301    1.2156 N   0  0  0  0  0  0  0  0  0  0  0  0
    8.2138    0.5123    0.9354 C   0  0  0  0  0  0  0  0  0  0  0  0
    7.9095   -0.7226    1.4005 N   0  0  0  0  0  0  0  0  0  0  0  0
    6.7439   -1.3263    1.1547 C   0  0  0  0  0  0  0  0  0  0  0  0
    6.4402   -2.4770    1.5785 O   0  0  0  0  0  0  0  0  0  0  0  0
    5.8060   -0.6744    0.3983 C   0  0  0  0  0  0  0  0  0  0  0  0
    6.1195    0.5778   -0.0706 C   0  0  0  0  0  0  0  0  0  0  0  0
    7.3035    1.1622    0.1929 N   0  0  0  0  0  0  0  0  0  0  0  0
    5.1474    1.2539   -0.8510 N   0  0  0  0  0  0  0  0  0  0  0  0
    4.0211    0.6430   -1.4694 C   0  0  0  0  0  0  0  0  0  0  0  0
    3.7886   -0.7945   -1.0761 C   0  0  2  0  0  0  0  0  0  0  0  0
    2.2911   -1.0759   -0.9269 C   0  0  0  0  0  0  0  0  0  0  0  0
    1.6977   -0.2481    0.0769 N   0  0  0  0  0  0  0  0  0  0  0  0
    0.3196   -0.2466    0.3487 C   0  0  0  0  0  0  0  0  0  0  0  0
   -0.5582   -1.0271   -0.3847 C   0  0  0  0  0  0  0  0  0  0  0  0
   -1.9088   -1.0217   -0.1310 C   0  0  0  0  0  0  0  0  0  0  0  0
   -2.4386   -0.2394    0.8622 C   0  0  0  0  0  0  0  0  0  0  0  0
   -3.8842   -0.1841    1.1644 C   0  0  0  0  0  0  0  0  0  0  0  0
   -4.2989    0.3462    2.2236 O   0  0  0  0  0  0  0  0  0  0  0  0
   -4.8674   -0.7287    0.2651 N   0  0  0  0  0  0  0  0  0  0  0  0
   -6.2720   -0.6576    0.5856 C   0  0  1  0  0  0  0  0  0  0  0  0
   -7.1163    0.1612   -0.3417 C   0  0  0  0  0  0  0  0  0  0  0  0
   -6.8004    1.5968   -0.4798 C   0  0  0  0  0  0  0  0  0  0  0  0
   -5.5214    1.9895   -1.0473 C   0  0  0  0  0  0  0  0  0  0  0  0
   -4.6908    1.2422   -1.5652 O   0  0  0  0  0  0  0  0  0  0  0  0
   -5.1936    3.3556   -1.0038 O   0  0  0  0  0  0  0  0  0  0  0  0
   -6.8376   -2.0413    0.5741 C   0  0  0  0  0  0  0  0  0  0  0  0
   -6.0690   -2.9903    0.3054 O   0  0  0  0  0  0  0  0  0  0  0  0
   -8.1636   -2.3253    0.8448 O   0  0  0  0  0  0  0  0  0  0  0  0
   -1.5590    0.5449    1.6009 C   0  0  0  0  0  0  0  0  0  0  0  0
   -0.2100    0.5356    1.3431 C   0  0  0  0  0  0  0  0  0  0  0  0
    4.5434   -1.2115    0.0713 N   0  0  0  0  0  0  0  0  0  0  0  0
   10.3396    0.5323    1.2447 H   0  0  0  0  0  0  0  0  0  0  0  0
    9.4939    2.1583    1.3823 H   0  0  0  0  0  0  0  0  0  0  0  0
    7.5165    2.1330   -0.1861 H   0  0  0  0  0  0  0  0  0  0  0  0
    5.2692    2.2816   -0.9804 H   0  0  0  0  0  0  0  0  0  0  0  0
    3.1151    1.2099   -1.1364 H   0  0  0  0  0  0  0  0  0  0  0  0
    4.0836    0.7962   -2.5647 H   0  0  0  0  0  0  0  0  0  0  0  0
    4.1366   -1.4165   -1.9416 H   0  0  0  0  0  0  0  0  0  0  0  0
    2.2330   -2.1552   -0.6075 H   0  0  0  0  0  0  0  0  0  0  0  0
    1.7836   -1.0401   -1.9093 H   0  0  0  0  0  0  0  0  0  0  0  0
    2.3315    0.3814    0.6277 H   0  0  0  0  0  0  0  0  0  0  0  0
   -0.1756   -1.6706   -1.1913 H   0  0  0  0  0  0  0  0  0  0  0  0
   -2.5589   -1.6419   -0.7189 H   0  0  0  0  0  0  0  0  0  0  0  0
   -4.5107   -1.1906   -0.6075 H   0  0  0  0  0  0  0  0  0  0  0  0
   -6.3809   -0.2484    1.6486 H   0  0  0  0  0  0  0  0  0  0  0  0
   -6.9820   -0.2982   -1.3750 H   0  0  0  0  0  0  0  0  0  0  0  0
   -8.2123   -0.0105   -0.1531 H   0  0  0  0  0  0  0  0  0  0  0  0
   -7.6156    2.0407   -1.1513 H   0  0  0  0  0  0  0  0  0  0  0  0
   -7.0075    2.1636    0.4967 H   0  0  0  0  0  0  0  0  0  0  0  0
   -4.2537    3.6967   -1.1563 H   0  0  0  0  0  0  0  0  0  0  0  0
   -8.6311   -3.1564    0.4947 H   0  0  0  0  0  0  0  0  0  0  0  0
   -2.0036    1.1569    2.3845 H   0  0  0  0  0  0  0  0  0  0  0  0
    0.4583    1.1706    1.9498 H   0  0  0  0  0  0  0  0  0  0  0  0
    4.1418   -1.9515    0.6998 H   0  0  0  0  0  0  0  0  0  0  0  0
  1  2  1  0
  2  3  2  0
  3  4  1  0
  4  5  2  0
  4  6  1  0
  6  7  2  0
  7  8  1  0
  7  9  1  0
  9 10  1  0
 10 11  1  0
 11 12  1  0
 12 13  1  0
 13 14  1  0
 14 15  2  0
 15 16  1  0
 16 17  2  0
 17 18  1  0
 18 19  2  0
 18 20  1  0
 20 21  1  0
 21 22  1  0
 22 23  1  0
 23 24  1  0
 24 25  2  0
 24 26  1  0
 21 27  1  0
 27 28  2  0
 27 29  1  0
 17 30  1  0
 30 31  2  0
 11 32  1  0
  8  2  1  0
 31 14  1  0
 32  6  1  0
  1 33  1  0
  1 34  1  0
  8 35  1  0
  9 36  1  0
 10 37  1  0
 10 38  1  0
 11 39  1  6
 12 40  1  0
 12 41  1  0
 13 42  1  0
 15 43  1  0
 16 44  1  0
 20 45  1  0
 21 46  1  1
 22 47  1  0
 22 48  1  0
 23 49  1  0
 23 50  1  0
 26 51  1  0
 29 52  1  0
 30 53  1  0
 31 54  1  0
 32 55  1  0
M  END
$$$$

     RDKit          3D

 55 57  0  0  0  0  0  0  0  0999 V2000
    8.6452    3.1714   -0.3051 N   0  0  0  0  0  0  0  0  0  0  0  0
    7.7838    2.0734   -0.0701 C   0  0  0  0  0  0  0  0  0  0  0  0
    8.1101    1.2044    0.9009 N   0  0  0  0  0  0  0  0  0  0  0  0
    7.3382    0.1301    1.1858 C   0  0  0  0  0  0  0  0  0  0  0  0
    7.6497   -0.6864    2.1020 O   0  0  0  0  0  0  0  0  0  0  0  0
    6.1895   -0.0698    0.4557 C   0  0  0  0  0  0  0  0  0  0  0  0
    5.8443    0.8127   -0.5413 C   0  0  0  0  0  0  0  0  0  0  0  0
    6.6596    1.8588   -0.7689 N   0  0  0  0  0  0  0  0  0  0  0  0
    4.6529    0.5987   -1.2940 N   0  0  0  0  0  0  0  0  0  0  0  0
    4.2241   -0.7904   -1.4934 C   0  0  0  0  0  0  0  0  0  0  0  0
    4.1538   -1.4465   -0.1404 C   0  0  2  0  0  0  0  0  0  0  0  0
    2.8675   -1.0429    0.5272 C   0  0  0  0  0  0  0  0  0  0  0  0
    1.7565   -1.4883   -0.2814 N   0  0  0  0  0  0  0  0  0  0  0  0
    0.4025   -1.2103    0.0735 C   0  0  0  0  0  0  0  0  0  0  0  0
   -0.6018   -1.6646   -0.7413 C   0  0  0  0  0  0  0  0  0  0  0  0
   -1.9464   -1.4229   -0.4450 C   0  0  0  0  0  0  0  0  0  0  0  0
   -2.2880   -0.7166    0.6829 C   0  0  0  0  0  0  0  0  0  0  0  0
   -3.6754   -0.4322    1.0460 C   0  0  0  0  0  0  0  0  0  0  0  0
   -3.9460    0.2238    2.0999 O   0  0  0  0  0  0  0  0  0  0  0  0
   -4.7887   -0.8490    0.2812 N   0  0  0  0  0  0  0  0  0  0  0  0
   -6.1628   -0.5388    0.6876 C   0  0  1  0  0  0  0  0  0  0  0  0
   -6.8704    0.2477   -0.4077 C   0  0  0  0  0  0  0  0  0  0  0  0
   -6.1023    1.5362   -0.6412 C   0  0  0  0  0  0  0  0  0  0  0  0
   -6.7229    2.3623   -1.6920 C   0  0  0  0  0  0  0  0  0  0  0  0
   -7.7637    2.0149   -2.3040 O   0  0  0  0  0  0  0  0  0  0  0  0
   -6.1516    3.5773   -2.0360 O   0  0  0  0  0  0  0  0  0  0  0  0
   -6.8643   -1.8280    0.9153 C   0  0  0  0  0  0  0  0  0  0  0  0
   -6.3304   -2.9570    0.7718 O   0  0  0  0  0  0  0  0  0  0  0  0
   -8.1926   -1.7741    1.3113 O   0  0  0  0  0  0  0  0  0  0  0  0
   -1.2792   -0.2599    1.5020 C   0  0  0  0  0  0  0  0  0  0  0  0
    0.0536   -0.5025    1.2032 C   0  0  0  0  0  0  0  0  0  0  0  0
    5.3119   -1.1600    0.6732 N   0  0  0  0  0  0  0  0  0  0  0  0
    8.3134    4.1186   -0.6259 H   0  0  0  0  0  0  0  0  0  0  0  0
    9.6934    3.1068   -0.1707 H   0  0  0  0  0  0  0  0  0  0  0  0
    6.3784    2.5253   -1.5368 H   0  0  0  0  0  0  0  0  0  0  0  0
    4.1546    1.4218   -1.6600 H   0  0  0  0  0  0  0  0  0  0  0  0
    5.0136   -1.3292   -2.0756 H   0  0  0  0  0  0  0  0  0  0  0  0
    3.2825   -0.8543   -2.0273 H   0  0  0  0  0  0  0  0  0  0  0  0
    4.0780   -2.5591   -0.3209 H   0  0  0  0  0  0  0  0  0  0  0  0
    2.7494   -1.5266    1.5221 H   0  0  0  0  0  0  0  0  0  0  0  0
    2.8028    0.0700    0.6460 H   0  0  0  0  0  0  0  0  0  0  0  0
    1.9425   -2.0335   -1.1443 H   0  0  0  0  0  0  0  0  0  0  0  0
   -0.3959   -2.2301   -1.6491 H   0  0  0  0  0  0  0  0  0  0  0  0
   -2.7175   -1.7896   -1.0996 H   0  0  0  0  0  0  0  0  0  0  0  0
   -4.6437   -1.3899   -0.5940 H   0  0  0  0  0  0  0  0  0  0  0  0
   -6.1848    0.0312    1.6185 H   0  0  0  0  0  0  0  0  0  0  0  0
   -7.8632    0.5467   -0.0154 H   0  0  0  0  0  0  0  0  0  0  0  0
   -7.0028   -0.3258   -1.3258 H   0  0  0  0  0  0  0  0  0  0  0  0
   -5.0595    1.2213   -0.9343 H   0  0  0  0  0  0  0  0  0  0  0  0
   -5.9833    2.0720    0.3170 H   0  0  0  0  0  0  0  0  0  0  0  0
   -6.5908    4.2105   -2.7123 H   0  0  0  0  0  0  0  0  0  0  0  0
   -8.7676   -2.6150    1.1889 H   0  0  0  0  0  0  0  0  0  0  0  0
   -1.5336    0.3059    2.4069 H   0  0  0  0  0  0  0  0  0  0  0  0
    0.8612   -0.1517    1.8348 H   0  0  0  0  0  0  0  0  0  0  0  0
    5.5166   -1.7970    1.4737 H   0  0  0  0  0  0  0  0  0  0  0  0
  1  2  1  0
  2  3  2  0
  3  4  1  0
  4  5  2  0
  4  6  1  0
  6  7  2  0
  7  8  1  0
  7  9  1  0
  9 10  1  0
 10 11  1  0
 11 12  1  0
 12 13  1  0
 13 14  1  0
 14 15  2  0
 15 16  1  0
 16 17  2  0
 17 18  1  0
 18 19  2  0
 18 20  1  0
 20 21  1  0
 21 22  1  0
 22 23  1  0
 23 24  1  0
 24 25  2  0
 24 26  1  0
 21 27  1  0
 27 28  2  0
 27 29  1  0
 17 30  1  0
 30 31  2  0
 11 32  1  0
  8  2  1  0
 31 14  1  0
 32  6  1  0
  1 33  1  0
  1 34  1  0
  8 35  1  0
  9 36  1  0
 10 37  1  0
 10 38  1  0
 11 39  1  6
 12 40  1  0
 12 41  1  0
 13 42  1  0
 15 43  1  0
 16 44  1  0
 20 45  1  0
 21 46  1  1
 22 47  1  0
 22 48  1  0
 23 49  1  0
 23 50  1  0
 26 51  1  0
 29 52  1  0
 30 53  1  0
 31 54  1  0
 32 55  1  0
M  END
$$$$

     RDKit          3D

 55 57  0  0  0  0  0  0  0  0999 V2000
    8.5361    1.6046   -2.2301 N   0  0  0  0  0  0  0  0  0  0  0  0
    7.4146    1.5169   -1.3642 C   0  0  0  0  0  0  0  0  0  0  0  0
    6.7435    2.6260   -1.0443 N   0  0  0  0  0  0  0  0  0  0  0  0
    5.6834    2.5468   -0.2264 C   0  0  0  0  0  0  0  0  0  0  0  0
    5.0393    3.5711    0.0879 O   0  0  0  0  0  0  0  0  0  0  0  0
    5.2861    1.3232    0.2836 C   0  0  0  0  0  0  0  0  0  0  0  0
    5.9894    0.1975   -0.0580 C   0  0  0  0  0  0  0  0  0  0  0  0
    7.0386    0.3087   -0.8734 N   0  0  0  0  0  0  0  0  0  0  0  0
    5.5946   -1.0548    0.4546 N   0  0  0  0  0  0  0  0  0  0  0  0
    4.5292   -1.2339    1.4026 C   0  0  0  0  0  0  0  0  0  0  0  0
    3.9654    0.0294    1.9687 C   0  0  2  0  0  0  0  0  0  0  0  0
    2.4666   -0.0903    2.2166 C   0  0  0  0  0  0  0  0  0  0  0  0
    1.7700   -0.3708    0.9687 N   0  0  0  0  0  0  0  0  0  0  0  0
    0.3709   -0.5842    0.9719 C   0  0  0  0  0  0  0  0  0  0  0  0
   -0.2801   -0.7772   -0.2252 C   0  0  0  0  0  0  0  0  0  0  0  0
   -1.6458   -0.9940   -0.2153 C   0  0  0  0  0  0  0  0  0  0  0  0
   -2.3818   -1.0258    0.9335 C   0  0  0  0  0  0  0  0  0  0  0  0
   -3.8157   -1.2558    0.8477 C   0  0  0  0  0  0  0  0  0  0  0  0
   -4.4145   -1.5638    1.9130 O   0  0  0  0  0  0  0  0  0  0  0  0
   -4.5753   -1.1597   -0.3293 N   0  0  0  0  0  0  0  0  0  0  0  0
   -5.9868   -1.3894   -0.4190 C   0  0  1  0  0  0  0  0  0  0  0  0
   -6.8766   -0.2086   -0.4000 C   0  0  0  0  0  0  0  0  0  0  0  0
   -6.7371    0.8273   -1.4341 C   0  0  0  0  0  0  0  0  0  0  0  0
   -5.4802    1.5976   -1.4510 C   0  0  0  0  0  0  0  0  0  0  0  0
   -4.5856    1.5424   -0.5789 O   0  0  0  0  0  0  0  0  0  0  0  0
   -5.3250    2.4571   -2.5717 O   0  0  0  0  0  0  0  0  0  0  0  0
   -6.3347   -2.3797   -1.4707 C   0  0  0  0  0  0  0  0  0  0  0  0
   -5.3793   -2.8836   -2.1223 O   0  0  0  0  0  0  0  0  0  0  0  0
   -7.6078   -2.7737   -1.7716 O   0  0  0  0  0  0  0  0  0  0  0  0
   -1.7369   -0.8335    2.1409 C   0  0  0  0  0  0  0  0  0  0  0  0
   -0.3808   -0.6172    2.1409 C   0  0  0  0  0  0  0  0  0  0  0  0
    4.1764    1.1776    1.1495 N   0  0  0  0  0  0  0  0  0  0  0  0
    8.6294    0.9550   -3.0473 H   0  0  0  0  0  0  0  0  0  0  0  0
    9.2555    2.3457   -2.0079 H   0  0  0  0  0  0  0  0  0  0  0  0
    7.5620   -0.5516   -1.1239 H   0  0  0  0  0  0  0  0  0  0  0  0
    6.0983   -1.9075    0.1325 H   0  0  0  0  0  0  0  0  0  0  0  0
    4.9477   -1.8381    2.2481 H   0  0  0  0  0  0  0  0  0  0  0  0
    3.7514   -1.8573    0.9161 H   0  0  0  0  0  0  0  0  0  0  0  0
    4.4419    0.2248    2.9589 H   0  0  0  0  0  0  0  0  0  0  0  0
    2.0705    0.8723    2.5966 H   0  0  0  0  0  0  0  0  0  0  0  0
    2.2733   -0.8663    2.9531 H   0  0  0  0  0  0  0  0  0  0  0  0
    2.3054   -0.4148    0.0743 H   0  0  0  0  0  0  0  0  0  0  0  0
    0.2693   -0.7581   -1.1595 H   0  0  0  0  0  0  0  0  0  0  0  0
   -2.0853   -1.1401   -1.2088 H   0  0  0  0  0  0  0  0  0  0  0  0
   -4.0633   -0.9226   -1.2326 H   0  0  0  0  0  0  0  0  0  0  0  0
   -6.2356   -1.9334    0.5685 H   0  0  0  0  0  0  0  0  0  0  0  0
   -7.9422   -0.5622   -0.2766 H   0  0  0  0  0  0  0  0  0  0  0  0
   -6.6819    0.3090    0.5987 H   0  0  0  0  0  0  0  0  0  0  0  0
   -6.8777    0.4538   -2.4773 H   0  0  0  0  0  0  0  0  0  0  0  0
   -7.5740    1.5747   -1.2692 H   0  0  0  0  0  0  0  0  0  0  0  0
   -4.6332    3.1997   -2.4735 H   0  0  0  0  0  0  0  0  0  0  0  0
   -7.8484   -2.9913   -2.7542 H   0  0  0  0  0  0  0  0  0  0  0  0
   -2.3391   -0.8642    3.0350 H   0  0  0  0  0  0  0  0  0  0  0  0
    0.1367   -0.4657    3.0774 H   0  0  0  0  0  0  0  0  0  0  0  0
    3.4789    1.9707    1.1772 H   0  0  0  0  0  0  0  0  0  0  0  0
  1  2  1  0
  2  3  2  0
  3  4  1  0
  4  5  2  0
  4  6  1  0
  6  7  2  0
  7  8  1  0
  7  9  1  0
  9 10  1  0
 10 11  1  0
 11 12  1  0
 12 13  1  0
 13 14  1  0
 14 15  2  0
 15 16  1  0
 16 17  2  0
 17 18  1  0
 18 19  2  0
 18 20  1  0
 20 21  1  0
 21 22  1  0
 22 23  1  0
 23 24  1  0
 24 25  2  0
 24 26  1  0
 21 27  1  0
 27 28  2  0
 27 29  1  0
 17 30  1  0
 30 31  2  0
 11 32  1  0
  8  2  1  0
 31 14  1  0
 32  6  1  0
  1 33  1  0
  1 34  1  0
  8 35  1  0
  9 36  1  0
 10 37  1  0
 10 38  1  0
 11 39  1  1
 12 40  1  0
 12 41  1  0
 13 42  1  0
 15 43  1  0
 16 44  1  0
 20 45  1  0
 21 46  1  1
 22 47  1  0
 22 48  1  0
 23 49  1  0
 23 50  1  0
 26 51  1  0
 29 52  1  0
 30 53  1  0
 31 54  1  0
 32 55  1  0
M  END
$$$$

     RDKit          3D

 55 57  0  0  0  0  0  0  0  0999 V2000
   -9.3815   -0.1242    0.1000 N   0  0  0  0  0  0  0  0  0  0  0  0
   -8.0336    0.2597    0.3508 C   0  0  0  0  0  0  0  0  0  0  0  0
   -7.7115    0.8309    1.5218 N   0  0  0  0  0  0  0  0  0  0  0  0
   -6.4616    1.2184    1.8270 C   0  0  0  0  0  0  0  0  0  0  0  0
   -6.1599    1.7584    2.9355 O   0  0  0  0  0  0  0  0  0  0  0  0
   -5.4753    1.0181    0.8952 C   0  0  0  0  0  0  0  0  0  0  0  0
   -5.7710    0.4280   -0.3321 C   0  0  0  0  0  0  0  0  0  0  0  0
   -7.0444    0.0771   -0.5415 N   0  0  0  0  0  0  0  0  0  0  0  0
   -4.7570    0.2099   -1.3183 N   0  0  0  0  0  0  0  0  0  0  0  0
   -3.5609    1.0154   -1.2034 C   0  0  0  0  0  0  0  0  0  0  0  0
   -3.1036    0.8861    0.2606 C   0  0  2  0  0  0  0  0  0  0  0  0
   -2.9454   -0.6052    0.4908 C   0  0  0  0  0  0  0  0  0  0  0  0
   -1.9611   -1.1022   -0.4226 N   0  0  0  0  0  0  0  0  0  0  0  0
   -0.6030   -0.7331   -0.2915 C   0  0  0  0  0  0  0  0  0  0  0  0
    0.3116   -0.9926   -1.3151 C   0  0  0  0  0  0  0  0  0  0  0  0
    1.6331   -0.6493   -1.1800 C   0  0  0  0  0  0  0  0  0  0  0  0
    2.1418   -0.0412   -0.0587 C   0  0  0  0  0  0  0  0  0  0  0  0
    3.5494    0.3337    0.1059 C   0  0  0  0  0  0  0  0  0  0  0  0
    3.9716    0.8927    1.1452 O   0  0  0  0  0  0  0  0  0  0  0  0
    4.5043    0.0796   -0.9098 N   0  0  0  0  0  0  0  0  0  0  0  0
    5.9161    0.4565   -0.7427 C   0  0  1  0  0  0  0  0  0  0  0  0
    6.8171   -0.7171   -0.9312 C   0  0  0  0  0  0  0  0  0  0  0  0
    6.5554   -1.8195    0.0306 C   0  0  0  0  0  0  0  0  0  0  0  0
    6.7541   -1.4286    1.4404 C   0  0  0  0  0  0  0  0  0  0  0  0
    7.1450   -0.2993    1.8169 O   0  0  0  0  0  0  0  0  0  0  0  0
    6.5055   -2.3398    2.4900 O   0  0  0  0  0  0  0  0  0  0  0  0
    6.2273    1.5097   -1.7709 C   0  0  0  0  0  0  0  0  0  0  0  0
    5.3310    1.8919   -2.5600 O   0  0  0  0  0  0  0  0  0  0  0  0
    7.4835    2.0754   -1.8743 O   0  0  0  0  0  0  0  0  0  0  0  0
    1.2247    0.2102    0.9486 C   0  0  0  0  0  0  0  0  0  0  0  0
   -0.1125   -0.1234    0.8438 C   0  0  0  0  0  0  0  0  0  0  0  0
   -4.1271    1.4060    1.1552 N   0  0  0  0  0  0  0  0  0  0  0  0
   -9.9613    0.5465   -0.4575 H   0  0  0  0  0  0  0  0  0  0  0  0
   -9.8135   -1.0021    0.4257 H   0  0  0  0  0  0  0  0  0  0  0  0
   -7.2865   -0.3662   -1.4542 H   0  0  0  0  0  0  0  0  0  0  0  0
   -4.9345   -0.4973   -2.0423 H   0  0  0  0  0  0  0  0  0  0  0  0
   -2.7301    0.6619   -1.8329 H   0  0  0  0  0  0  0  0  0  0  0  0
   -3.8537    2.0626   -1.4314 H   0  0  0  0  0  0  0  0  0  0  0  0
   -2.1567    1.4444    0.3589 H   0  0  0  0  0  0  0  0  0  0  0  0
   -3.9356   -1.0934    0.3065 H   0  0  0  0  0  0  0  0  0  0  0  0
   -2.6189   -0.7921    1.5542 H   0  0  0  0  0  0  0  0  0  0  0  0
   -2.2450   -1.7385   -1.1875 H   0  0  0  0  0  0  0  0  0  0  0  0
   -0.0728   -1.4776   -2.2199 H   0  0  0  0  0  0  0  0  0  0  0  0
    2.3279   -0.8656   -2.0007 H   0  0  0  0  0  0  0  0  0  0  0  0
    4.2658   -0.3780   -1.8111 H   0  0  0  0  0  0  0  0  0  0  0  0
    6.0546    0.9286    0.2367 H   0  0  0  0  0  0  0  0  0  0  0  0
    6.6808   -1.0891   -1.9698 H   0  0  0  0  0  0  0  0  0  0  0  0
    7.8775   -0.3530   -0.8878 H   0  0  0  0  0  0  0  0  0  0  0  0
    7.2023   -2.6960   -0.1849 H   0  0  0  0  0  0  0  0  0  0  0  0
    5.4663   -2.0930   -0.0717 H   0  0  0  0  0  0  0  0  0  0  0  0
    6.1238   -1.9492    3.3529 H   0  0  0  0  0  0  0  0  0  0  0  0
    7.8691    2.3492   -2.7872 H   0  0  0  0  0  0  0  0  0  0  0  0
    1.5864    0.6900    1.8525 H   0  0  0  0  0  0  0  0  0  0  0  0
   -0.7999    0.0900    1.6854 H   0  0  0  0  0  0  0  0  0  0  0  0
   -3.9080    2.0357    1.9571 H   0  0  0  0  0  0  0  0  0  0  0  0
  1  2  1  0
  2  3  2  0
  3  4  1  0
  4  5  2  0
  4  6  1  0
  6  7  2  0
  7  8  1  0
  7  9  1  0
  9 10  1  0
 10 11  1  0
 11 12  1  0
 12 13  1  0
 13 14  1  0
 14 15  2  0
 15 16  1  0
 16 17  2  0
 17 18  1  0
 18 19  2  0
 18 20  1  0
 20 21  1  0
 21 22  1  0
 22 23  1  0
 23 24  1  0
 24 25  2  0
 24 26  1  0
 21 27  1  0
 27 28  2  0
 27 29  1  0
 17 30  1  0
 30 31  2  0
 11 32  1  0
  8  2  1  0
 31 14  1  0
 32  6  1  0
  1 33  1  0
  1 34  1  0
  8 35  1  0
  9 36  1  0
 10 37  1  0
 10 38  1  0
 11 39  1  6
 12 40  1  0
 12 41  1  0
 13 42  1  0
 15 43  1  0
 16 44  1  0
 20 45  1  0
 21 46  1  1
 22 47  1  0
 22 48  1  0
 23 49  1  0
 23 50  1  0
 26 51  1  0
 29 52  1  0
 30 53  1  0
 31 54  1  0
 32 55  1  0
M  END
$$$$

     RDKit          3D

 55 57  0  0  0  0  0  0  0  0999 V2000
   -9.1616    2.2176   -0.6638 N   0  0  0  0  0  0  0  0  0  0  0  0
   -8.1315    1.2661   -0.4546 C   0  0  0  0  0  0  0  0  0  0  0  0
   -8.2820    0.0411   -0.9858 N   0  0  0  0  0  0  0  0  0  0  0  0
   -7.3384   -0.9211   -0.8288 C   0  0  0  0  0  0  0  0  0  0  0  0
   -7.4974   -2.0635   -1.3344 O   0  0  0  0  0  0  0  0  0  0  0  0
   -6.1965   -0.6435   -0.1093 C   0  0  0  0  0  0  0  0  0  0  0  0
   -6.0424    0.6065    0.4332 C   0  0  0  0  0  0  0  0  0  0  0  0
   -7.0139    1.5204    0.2433 N   0  0  0  0  0  0  0  0  0  0  0  0
   -4.8643    0.8815    1.1730 N   0  0  0  0  0  0  0  0  0  0  0  0
   -4.0962   -0.1983    1.8109 C   0  0  0  0  0  0  0  0  0  0  0  0
   -3.9755   -1.3385    0.8239 C   0  0  2  0  0  0  0  0  0  0  0  0
   -2.7606   -1.0451   -0.0256 C   0  0  0  0  0  0  0  0  0  0  0  0
   -1.6145   -0.9945    0.8586 N   0  0  0  0  0  0  0  0  0  0  0  0
   -0.3115   -0.6631    0.3939 C   0  0  0  0  0  0  0  0  0  0  0  0
   -0.0976   -0.2249   -0.8993 C   0  0  0  0  0  0  0  0  0  0  0  0
    1.1910    0.0865   -1.3537 C   0  0  0  0  0  0  0  0  0  0  0  0
    2.2787   -0.0396   -0.5123 C   0  0  0  0  0  0  0  0  0  0  0  0
    3.6152    0.3025   -1.0261 C   0  0  0  0  0  0  0  0  0  0  0  0
    3.7424    1.2959   -1.7796 O   0  0  0  0  0  0  0  0  0  0  0  0
    4.7478   -0.4538   -0.6957 N   0  0  0  0  0  0  0  0  0  0  0  0
    6.1005   -0.1901   -1.1496 C   0  0  1  0  0  0  0  0  0  0  0  0
    7.0687   -0.3789   -0.0194 C   0  0  0  0  0  0  0  0  0  0  0  0
    6.7334    0.5639    1.0957 C   0  0  0  0  0  0  0  0  0  0  0  0
    6.8370    1.9561    0.6015 C   0  0  0  0  0  0  0  0  0  0  0  0
    5.9398    2.5562   -0.0375 O   0  0  0  0  0  0  0  0  0  0  0  0
    7.9975    2.6486    0.8571 O   0  0  0  0  0  0  0  0  0  0  0  0
    6.3476   -1.2392   -2.2178 C   0  0  0  0  0  0  0  0  0  0  0  0
    5.5133   -2.0854   -2.5491 O   0  0  0  0  0  0  0  0  0  0  0  0
    7.5841   -1.2316   -2.8460 O   0  0  0  0  0  0  0  0  0  0  0  0
    2.0721   -0.4694    0.7575 C   0  0  0  0  0  0  0  0  0  0  0  0
    0.7922   -0.7780    1.2080 C   0  0  0  0  0  0  0  0  0  0  0  0
   -5.1665   -1.6030    0.0905 N   0  0  0  0  0  0  0  0  0  0  0  0
   -9.4701    2.5233   -1.6200 H   0  0  0  0  0  0  0  0  0  0  0  0
   -9.6707    2.6663    0.1322 H   0  0  0  0  0  0  0  0  0  0  0  0
   -6.8657    2.4438    0.6638 H   0  0  0  0  0  0  0  0  0  0  0  0
   -4.5620    1.8812    1.2480 H   0  0  0  0  0  0  0  0  0  0  0  0
   -3.1206    0.2260    2.0707 H   0  0  0  0  0  0  0  0  0  0  0  0
   -4.5934   -0.5009    2.7417 H   0  0  0  0  0  0  0  0  0  0  0  0
   -3.7244   -2.2454    1.4477 H   0  0  0  0  0  0  0  0  0  0  0  0
   -2.9711   -0.0796   -0.5323 H   0  0  0  0  0  0  0  0  0  0  0  0
   -2.6400   -1.8690   -0.7852 H   0  0  0  0  0  0  0  0  0  0  0  0
   -1.7080   -1.2070    1.8869 H   0  0  0  0  0  0  0  0  0  0  0  0
   -0.9530   -0.1264   -1.5624 H   0  0  0  0  0  0  0  0  0  0  0  0
    1.3148    0.4283   -2.3775 H   0  0  0  0  0  0  0  0  0  0  0  0
    4.5905   -1.2849   -0.0632 H   0  0  0  0  0  0  0  0  0  0  0  0
    6.1747    0.8158   -1.6204 H   0  0  0  0  0  0  0  0  0  0  0  0
    6.9570   -1.4292    0.3495 H   0  0  0  0  0  0  0  0  0  0  0  0
    8.1144   -0.2165   -0.3516 H   0  0  0  0  0  0  0  0  0  0  0  0
    5.6954    0.3811    1.4573 H   0  0  0  0  0  0  0  0  0  0  0  0
    7.3936    0.3995    1.9904 H   0  0  0  0  0  0  0  0  0  0  0  0
    8.0695    3.6541    0.9047 H   0  0  0  0  0  0  0  0  0  0  0  0
    7.7534   -1.6000   -3.7741 H   0  0  0  0  0  0  0  0  0  0  0  0
    2.8993   -0.5754    1.4349 H   0  0  0  0  0  0  0  0  0  0  0  0
    0.6151   -1.1213    2.2218 H   0  0  0  0  0  0  0  0  0  0  0  0
   -5.3091   -2.5450   -0.3303 H   0  0  0  0  0  0  0  0  0  0  0  0
  1  2  1  0
  2  3  2  0
  3  4  1  0
  4  5  2  0
  4  6  1  0
  6  7  2  0
  7  8  1  0
  7  9  1  0
  9 10  1  0
 10 11  1  0
 11 12  1  0
 12 13  1  0
 13 14  1  0
 14 15  2  0
 15 16  1  0
 16 17  2  0
 17 18  1  0
 18 19  2  0
 18 20  1  0
 20 21  1  0
 21 22  1  0
 22 23  1  0
 23 24  1  0
 24 25  2  0
 24 26  1  0
 21 27  1  0
 27 28  2  0
 27 29  1  0
 17 30  1  0
 30 31  2  0
 11 32  1  0
  8  2  1  0
 31 14  1  0
 32  6  1  0
  1 33  1  0
  1 34  1  0
  8 35  1  0
  9 36  1  0
 10 37  1  0
 10 38  1  0
 11 39  1  1
 12 40  1  0
 12 41  1  0
 13 42  1  0
 15 43  1  0
 16 44  1  0
 20 45  1  0
 21 46  1  6
 22 47  1  0
 22 48  1  0
 23 49  1  0
 23 50  1  0
 26 51  1  0
 29 52  1  0
 30 53  1  0
 31 54  1  0
 32 55  1  0
M  END
$$$$

     RDKit          3D

 55 57  0  0  0  0  0  0  0  0999 V2000
   10.2747    0.9758   -0.5779 N   0  0  0  0  0  0  0  0  0  0  0  0
    8.8349    0.9161   -0.6157 C   0  0  0  0  0  0  0  0  0  0  0  0
    8.1530    1.2740   -1.7180 N   0  0  0  0  0  0  0  0  0  0  0  0
    6.8048    1.2046   -1.7120 C   0  0  0  0  0  0  0  0  0  0  0  0
    6.1267    1.5316   -2.7273 O   0  0  0  0  0  0  0  0  0  0  0  0
    6.0902    0.7798   -0.6176 C   0  0  0  0  0  0  0  0  0  0  0  0
    6.8048    0.4167    0.5030 C   0  0  0  0  0  0  0  0  0  0  0  0
    8.1585    0.4964    0.4689 N   0  0  0  0  0  0  0  0  0  0  0  0
    6.1130   -0.0311    1.6633 N   0  0  0  0  0  0  0  0  0  0  0  0
    4.6937   -0.3787    1.5498 C   0  0  0  0  0  0  0  0  0  0  0  0
    4.0435    0.6730    0.7151 C   0  0  2  0  0  0  0  0  0  0  0  0
    2.5567    0.6150    0.6682 C   0  0  0  0  0  0  0  0  0  0  0  0
    2.0293   -0.6035    0.1486 N   0  0  0  0  0  0  0  0  0  0  0  0
    0.6223   -0.8082    0.0213 C   0  0  0  0  0  0  0  0  0  0  0  0
    0.1047   -1.9832   -0.4426 C   0  0  0  0  0  0  0  0  0  0  0  0
   -1.2560   -2.1716   -0.5650 C   0  0  0  0  0  0  0  0  0  0  0  0
   -2.1470   -1.1639   -0.2174 C   0  0  0  0  0  0  0  0  0  0  0  0
   -3.5898   -1.3484   -0.3379 C   0  0  0  0  0  0  0  0  0  0  0  0
   -4.0045   -2.5020   -0.6183 O   0  0  0  0  0  0  0  0  0  0  0  0
   -4.5356   -0.3395   -0.1649 N   0  0  0  0  0  0  0  0  0  0  0  0
   -5.9983   -0.5267   -0.2857 C   0  0  1  0  0  0  0  0  0  0  0  0
   -6.6850   -0.2078    0.9704 C   0  0  0  0  0  0  0  0  0  0  0  0
   -8.1624   -0.3527    0.9112 C   0  0  0  0  0  0  0  0  0  0  0  0
   -8.9041    0.6091    0.0936 C   0  0  0  0  0  0  0  0  0  0  0  0
   -8.5137    1.7050   -0.3408 O   0  0  0  0  0  0  0  0  0  0  0  0
  -10.2302    0.2264   -0.2334 O   0  0  0  0  0  0  0  0  0  0  0  0
   -6.3996    0.2812   -1.4279 C   0  0  0  0  0  0  0  0  0  0  0  0
   -5.7960    1.3870   -1.6280 O   0  0  0  0  0  0  0  0  0  0  0  0
   -7.4055   -0.0891   -2.3248 O   0  0  0  0  0  0  0  0  0  0  0  0
   -1.5854    0.0052    0.2457 C   0  0  0  0  0  0  0  0  0  0  0  0
   -0.2316    0.2113    0.3749 C   0  0  0  0  0  0  0  0  0  0  0  0
    4.6604    0.7024   -0.5985 N   0  0  0  0  0  0  0  0  0  0  0  0
   10.8752    0.1517   -0.6648 H   0  0  0  0  0  0  0  0  0  0  0  0
   10.7139    1.9342   -0.4519 H   0  0  0  0  0  0  0  0  0  0  0  0
    8.6836    0.2124    1.3380 H   0  0  0  0  0  0  0  0  0  0  0  0
    6.6150   -0.1064    2.5661 H   0  0  0  0  0  0  0  0  0  0  0  0
    4.5684   -1.3522    1.0362 H   0  0  0  0  0  0  0  0  0  0  0  0
    4.1867   -0.4064    2.5234 H   0  0  0  0  0  0  0  0  0  0  0  0
    4.3242    1.6612    1.1878 H   0  0  0  0  0  0  0  0  0  0  0  0
    2.2075    1.4485    0.0137 H   0  0  0  0  0  0  0  0  0  0  0  0
    2.1941    0.7677    1.7250 H   0  0  0  0  0  0  0  0  0  0  0  0
    2.6929   -1.3565   -0.1424 H   0  0  0  0  0  0  0  0  0  0  0  0
    0.7891   -2.7938   -0.7246 H   0  0  0  0  0  0  0  0  0  0  0  0
   -1.6615   -3.1162   -0.9381 H   0  0  0  0  0  0  0  0  0  0  0  0
   -4.2295    0.6227    0.0647 H   0  0  0  0  0  0  0  0  0  0  0  0
   -6.1878   -1.6240   -0.5055 H   0  0  0  0  0  0  0  0  0  0  0  0
   -6.3462   -0.8399    1.8388 H   0  0  0  0  0  0  0  0  0  0  0  0
   -6.5088    0.8891    1.2481 H   0  0  0  0  0  0  0  0  0  0  0  0
   -8.6093   -0.2744    1.9586 H   0  0  0  0  0  0  0  0  0  0  0  0
   -8.4410   -1.4000    0.5595 H   0  0  0  0  0  0  0  0  0  0  0  0
  -10.8299    0.8131   -0.7907 H   0  0  0  0  0  0  0  0  0  0  0  0
   -7.7249    0.6268   -2.9620 H   0  0  0  0  0  0  0  0  0  0  0  0
   -2.2664    0.8051    0.5220 H   0  0  0  0  0  0  0  0  0  0  0  0
    0.1781    1.1611    0.7495 H   0  0  0  0  0  0  0  0  0  0  0  0
    4.1504    0.6721   -1.4916 H   0  0  0  0  0  0  0  0  0  0  0  0
  1  2  1  0
  2  3  2  0
  3  4  1  0
  4  5  2  0
  4  6  1  0
  6  7  2  0
  7  8  1  0
  7  9  1  0
  9 10  1  0
 10 11  1  0
 11 12  1  0
 12 13  1  0
 13 14  1  0
 14 15  2  0
 15 16  1  0
 16 17  2  0
 17 18  1  0
 18 19  2  0
 18 20  1  0
 20 21  1  0
 21 22  1  0
 22 23  1  0
 23 24  1  0
 24 25  2  0
 24 26  1  0
 21 27  1  0
 27 28  2  0
 27 29  1  0
 17 30  1  0
 30 31  2  0
 11 32  1  0
  8  2  1  0
 31 14  1  0
 32  6  1  0
  1 33  1  0
  1 34  1  0
  8 35  1  0
  9 36  1  0
 10 37  1  0
 10 38  1  0
 11 39  1  1
 12 40  1  0
 12 41  1  0
 13 42  1  0
 15 43  1  0
 16 44  1  0
 20 45  1  0
 21 46  1  6
 22 47  1  0
 22 48  1  0
 23 49  1  0
 23 50  1  0
 26 51  1  0
 29 52  1  0
 30 53  1  0
 31 54  1  0
 32 55  1  0
M  END
$$$$

     RDKit          3D

 55 57  0  0  0  0  0  0  0  0999 V2000
   -8.2903    2.8168   -1.4623 N   0  0  0  0  0  0  0  0  0  0  0  0
   -7.4987    1.6982   -1.0383 C   0  0  0  0  0  0  0  0  0  0  0  0
   -8.1265    0.5497   -0.7345 N   0  0  0  0  0  0  0  0  0  0  0  0
   -7.3765   -0.4894   -0.3393 C   0  0  0  0  0  0  0  0  0  0  0  0
   -7.8638   -1.6090   -0.0319 O   0  0  0  0  0  0  0  0  0  0  0  0
   -5.9809   -0.3492   -0.2562 C   0  0  0  0  0  0  0  0  0  0  0  0
   -5.3824    0.8362   -0.5744 C   0  0  0  0  0  0  0  0  0  0  0  0
   -6.1736    1.8719   -0.9722 N   0  0  0  0  0  0  0  0  0  0  0  0
   -3.9866    0.9986   -0.4979 N   0  0  0  0  0  0  0  0  0  0  0  0
   -3.1451   -0.1599   -0.1881 C   0  0  0  0  0  0  0  0  0  0  0  0
   -3.8527   -1.1323    0.6770 C   0  0  2  0  0  0  0  0  0  0  0  0
   -3.0909   -2.3476    1.0417 C   0  0  0  0  0  0  0  0  0  0  0  0
   -1.8951   -2.0401    1.7527 N   0  0  0  0  0  0  0  0  0  0  0  0
   -0.7025   -1.6494    1.1153 C   0  0  0  0  0  0  0  0  0  0  0  0
    0.3150   -1.0420    1.8721 C   0  0  0  0  0  0  0  0  0  0  0  0
    1.4971   -0.7002    1.2606 C   0  0  0  0  0  0  0  0  0  0  0  0
    1.7463   -0.9229   -0.0746 C   0  0  0  0  0  0  0  0  0  0  0  0
    2.9942   -0.5725   -0.7274 C   0  0  0  0  0  0  0  0  0  0  0  0
    3.0730   -0.7270   -1.9728 O   0  0  0  0  0  0  0  0  0  0  0  0
    4.0971   -0.0770   -0.0334 N   0  0  0  0  0  0  0  0  0  0  0  0
    5.3453    0.2642   -0.7454 C   0  0  1  0  0  0  0  0  0  0  0  0
    5.5137    1.7226   -0.5133 C   0  0  0  0  0  0  0  0  0  0  0  0
    6.7464    2.2932   -1.1141 C   0  0  0  0  0  0  0  0  0  0  0  0
    7.9493    1.7837   -0.4353 C   0  0  0  0  0  0  0  0  0  0  0  0
    9.0513    1.7188   -1.0229 O   0  0  0  0  0  0  0  0  0  0  0  0
    7.8688    1.3716    0.8816 O   0  0  0  0  0  0  0  0  0  0  0  0
    6.3604   -0.6558   -0.2645 C   0  0  0  0  0  0  0  0  0  0  0  0
    6.2384   -1.2991    0.8059 O   0  0  0  0  0  0  0  0  0  0  0  0
    7.5238   -0.8731   -0.9841 O   0  0  0  0  0  0  0  0  0  0  0  0
    0.7229   -1.5210   -0.7846 C   0  0  0  0  0  0  0  0  0  0  0  0
   -0.4926   -1.8881   -0.2208 C   0  0  0  0  0  0  0  0  0  0  0  0
   -5.1848   -1.4452    0.1613 N   0  0  0  0  0  0  0  0  0  0  0  0
   -8.9335    2.6384   -2.2773 H   0  0  0  0  0  0  0  0  0  0  0  0
   -8.2205    3.7316   -0.9864 H   0  0  0  0  0  0  0  0  0  0  0  0
   -5.7093    2.7958   -1.2206 H   0  0  0  0  0  0  0  0  0  0  0  0
   -3.5227    1.9104   -0.6545 H   0  0  0  0  0  0  0  0  0  0  0  0
   -2.2585    0.2631    0.3249 H   0  0  0  0  0  0  0  0  0  0  0  0
   -2.8727   -0.6451   -1.1696 H   0  0  0  0  0  0  0  0  0  0  0  0
   -4.0729   -0.5871    1.6490 H   0  0  0  0  0  0  0  0  0  0  0  0
   -2.8796   -3.0079    0.1560 H   0  0  0  0  0  0  0  0  0  0  0  0
   -3.7101   -3.0118    1.7052 H   0  0  0  0  0  0  0  0  0  0  0  0
   -1.9225   -2.1119    2.8099 H   0  0  0  0  0  0  0  0  0  0  0  0
    0.1853   -0.8407    2.9153 H   0  0  0  0  0  0  0  0  0  0  0  0
    2.3076   -0.2218    1.8364 H   0  0  0  0  0  0  0  0  0  0  0  0
    4.0904    0.0686    0.9830 H   0  0  0  0  0  0  0  0  0  0  0  0
    5.1357    0.0386   -1.8335 H   0  0  0  0  0  0  0  0  0  0  0  0
    5.4576    1.9540    0.5893 H   0  0  0  0  0  0  0  0  0  0  0  0
    4.6111    2.2933   -0.9117 H   0  0  0  0  0  0  0  0  0  0  0  0
    6.7209    3.4125   -1.1300 H   0  0  0  0  0  0  0  0  0  0  0  0
    6.7723    1.9422   -2.1922 H   0  0  0  0  0  0  0  0  0  0  0  0
    8.6800    1.1183    1.4009 H   0  0  0  0  0  0  0  0  0  0  0  0
    8.1035   -1.6891   -0.9071 H   0  0  0  0  0  0  0  0  0  0  0  0
    0.8678   -1.7145   -1.8245 H   0  0  0  0  0  0  0  0  0  0  0  0
   -1.2673   -2.3574   -0.8093 H   0  0  0  0  0  0  0  0  0  0  0  0
   -5.5628   -2.4043    0.0885 H   0  0  0  0  0  0  0  0  0  0  0  0
  1  2  1  0
  2  3  2  0
  3  4  1  0
  4  5  2  0
  4  6  1  0
  6  7  2  0
  7  8  1  0
  7  9  1  0
  9 10  1  0
 10 11  1  0
 11 12  1  0
 12 13  1  0
 13 14  1  0
 14 15  2  0
 15 16  1  0
 16 17  2  0
 17 18  1  0
 18 19  2  0
 18 20  1  0
 20 21  1  0
 21 22  1  0
 22 23  1  0
 23 24  1  0
 24 25  2  0
 24 26  1  0
 21 27  1  0
 27 28  2  0
 27 29  1  0
 17 30  1  0
 30 31  2  0
 11 32  1  0
  8  2  1  0
 31 14  1  0
 32  6  1  0
  1 33  1  0
  1 34  1  0
  8 35  1  0
  9 36  1  0
 10 37  1  0
 10 38  1  0
 11 39  1  1
 12 40  1  0
 12 41  1  0
 13 42  1  0
 15 43  1  0
 16 44  1  0
 20 45  1  0
 21 46  1  6
 22 47  1  0
 22 48  1  0
 23 49  1  0
 23 50  1  0
 26 51  1  0
 29 52  1  0
 30 53  1  0
 31 54  1  0
 32 55  1  0
M  END
$$$$

     RDKit          3D

 55 57  0  0  0  0  0  0  0  0999 V2000
    9.9666    1.2335   -0.4625 N   0  0  0  0  0  0  0  0  0  0  0  0
    8.5950    1.0923   -0.1129 C   0  0  0  0  0  0  0  0  0  0  0  0
    7.9480    2.0967    0.5030 N   0  0  0  0  0  0  0  0  0  0  0  0
    6.6464    1.8904    0.8041 C   0  0  0  0  0  0  0  0  0  0  0  0
    5.9759    2.7941    1.3846 O   0  0  0  0  0  0  0  0  0  0  0  0
    6.0179    0.7246    0.5005 C   0  0  0  0  0  0  0  0  0  0  0  0
    6.7184   -0.3009   -0.1402 C   0  0  0  0  0  0  0  0  0  0  0  0
    8.0098   -0.0804   -0.4323 N   0  0  0  0  0  0  0  0  0  0  0  0
    6.0962   -1.5260   -0.4711 N   0  0  0  0  0  0  0  0  0  0  0  0
    4.6724   -1.6834   -0.3165 C   0  0  0  0  0  0  0  0  0  0  0  0
    4.2385   -0.9210    0.8979 C   0  0  2  0  0  0  0  0  0  0  0  0
    2.7531   -1.0323    1.1537 C   0  0  0  0  0  0  0  0  0  0  0  0
    1.9688   -0.5281    0.0614 N   0  0  0  0  0  0  0  0  0  0  0  0
    0.5528   -0.5732    0.1680 C   0  0  0  0  0  0  0  0  0  0  0  0
   -0.2715   -0.1108   -0.8331 C   0  0  0  0  0  0  0  0  0  0  0  0
   -1.6642   -0.1574   -0.7236 C   0  0  0  0  0  0  0  0  0  0  0  0
   -2.2721   -0.6720    0.3993 C   0  0  0  0  0  0  0  0  0  0  0  0
   -3.7080   -0.7485    0.5737 C   0  0  0  0  0  0  0  0  0  0  0  0
   -4.1647   -1.2366    1.6332 O   0  0  0  0  0  0  0  0  0  0  0  0
   -4.5952   -0.2969   -0.3987 N   0  0  0  0  0  0  0  0  0  0  0  0
   -6.0545   -0.3553   -0.2635 C   0  0  1  0  0  0  0  0  0  0  0  0
   -6.6496    0.9987   -0.2451 C   0  0  0  0  0  0  0  0  0  0  0  0
   -8.1413    0.9436   -0.0965 C   0  0  0  0  0  0  0  0  0  0  0  0
   -8.6632    2.3614   -0.0471 C   0  0  0  0  0  0  0  0  0  0  0  0
   -9.8939    2.5887    0.0755 O   0  0  0  0  0  0  0  0  0  0  0  0
   -7.7804    3.4177   -0.1373 O   0  0  0  0  0  0  0  0  0  0  0  0
   -6.5472   -1.1957   -1.3541 C   0  0  0  0  0  0  0  0  0  0  0  0
   -5.7629   -1.6516   -2.2214 O   0  0  0  0  0  0  0  0  0  0  0  0
   -7.8745   -1.5273   -1.4816 O   0  0  0  0  0  0  0  0  0  0  0  0
   -1.4492   -1.1329    1.3971 C   0  0  0  0  0  0  0  0  0  0  0  0
   -0.0796   -1.0878    1.2913 C   0  0  0  0  0  0  0  0  0  0  0  0
    4.6527    0.4566    0.7946 N   0  0  0  0  0  0  0  0  0  0  0  0
   10.5505    1.8676    0.1313 H   0  0  0  0  0  0  0  0  0  0  0  0
   10.3655    0.7184   -1.2835 H   0  0  0  0  0  0  0  0  0  0  0  0
    8.5363   -0.8594   -0.9174 H   0  0  0  0  0  0  0  0  0  0  0  0
    6.6740   -2.3060   -0.8246 H   0  0  0  0  0  0  0  0  0  0  0  0
    4.3689   -2.7407   -0.1724 H   0  0  0  0  0  0  0  0  0  0  0  0
    4.1051   -1.2877   -1.1867 H   0  0  0  0  0  0  0  0  0  0  0  0
    4.7486   -1.3770    1.7735 H   0  0  0  0  0  0  0  0  0  0  0  0
    2.5025   -2.0578    1.4183 H   0  0  0  0  0  0  0  0  0  0  0  0
    2.5492   -0.3923    2.0608 H   0  0  0  0  0  0  0  0  0  0  0  0
    2.4136   -0.1362   -0.7939 H   0  0  0  0  0  0  0  0  0  0  0  0
    0.1511    0.3081   -1.7468 H   0  0  0  0  0  0  0  0  0  0  0  0
   -2.2580    0.2202   -1.5415 H   0  0  0  0  0  0  0  0  0  0  0  0
   -4.2538    0.1109   -1.2837 H   0  0  0  0  0  0  0  0  0  0  0  0
   -6.2374   -0.8222    0.7469 H   0  0  0  0  0  0  0  0  0  0  0  0
   -6.2805    1.6051    0.6172 H   0  0  0  0  0  0  0  0  0  0  0  0
   -6.4451    1.5067   -1.2135 H   0  0  0  0  0  0  0  0  0  0  0  0
   -8.4818    0.4023    0.8075 H   0  0  0  0  0  0  0  0  0  0  0  0
   -8.6448    0.4911   -1.0055 H   0  0  0  0  0  0  0  0  0  0  0  0
   -7.9958    4.3425    0.2402 H   0  0  0  0  0  0  0  0  0  0  0  0
   -8.3008   -1.6565   -2.4122 H   0  0  0  0  0  0  0  0  0  0  0  0
   -1.8909   -1.5411    2.2877 H   0  0  0  0  0  0  0  0  0  0  0  0
    0.5644   -1.4570    2.0911 H   0  0  0  0  0  0  0  0  0  0  0  0
    4.0186    1.2805    0.9212 H   0  0  0  0  0  0  0  0  0  0  0  0
  1  2  1  0
  2  3  2  0
  3  4  1  0
  4  5  2  0
  4  6  1  0
  6  7  2  0
  7  8  1  0
  7  9  1  0
  9 10  1  0
 10 11  1  0
 11 12  1  0
 12 13  1  0
 13 14  1  0
 14 15  2  0
 15 16  1  0
 16 17  2  0
 17 18  1  0
 18 19  2  0
 18 20  1  0
 20 21  1  0
 21 22  1  0
 22 23  1  0
 23 24  1  0
 24 25  2  0
 24 26  1  0
 21 27  1  0
 27 28  2  0
 27 29  1  0
 17 30  1  0
 30 31  2  0
 11 32  1  0
  8  2  1  0
 31 14  1  0
 32  6  1  0
  1 33  1  0
  1 34  1  0
  8 35  1  0
  9 36  1  0
 10 37  1  0
 10 38  1  0
 11 39  1  1
 12 40  1  0
 12 41  1  0
 13 42  1  0
 15 43  1  0
 16 44  1  0
 20 45  1  0
 21 46  1  1
 22 47  1  0
 22 48  1  0
 23 49  1  0
 23 50  1  0
 26 51  1  0
 29 52  1  0
 30 53  1  0
 31 54  1  0
 32 55  1  0
M  END
$$$$

     RDKit          3D

 55 57  0  0  0  0  0  0  0  0999 V2000
    9.2559    0.8062    1.9969 N   0  0  0  0  0  0  0  0  0  0  0  0
    8.1159    0.4193    1.2447 C   0  0  0  0  0  0  0  0  0  0  0  0
    8.1702   -0.6272    0.3687 N   0  0  0  0  0  0  0  0  0  0  0  0
    7.1044   -0.9969   -0.3425 C   0  0  0  0  0  0  0  0  0  0  0  0
    7.1589   -1.9646   -1.1514 O   0  0  0  0  0  0  0  0  0  0  0  0
    5.9182   -0.3446   -0.2228 C   0  0  0  0  0  0  0  0  0  0  0  0
    5.8439    0.7244    0.6655 C   0  0  0  0  0  0  0  0  0  0  0  0
    6.9399    1.0513    1.3511 N   0  0  0  0  0  0  0  0  0  0  0  0
    4.6007    1.4375    0.8187 N   0  0  0  0  0  0  0  0  0  0  0  0
    3.6528    1.2988   -0.2547 C   0  0  0  0  0  0  0  0  0  0  0  0
    3.4905   -0.2026   -0.5408 C   0  0  2  0  0  0  0  0  0  0  0  0
    3.1421   -0.8821    0.7822 C   0  0  0  0  0  0  0  0  0  0  0  0
    1.9262   -0.3107    1.2502 N   0  0  0  0  0  0  0  0  0  0  0  0
    0.6385   -0.4740    0.6262 C   0  0  0  0  0  0  0  0  0  0  0  0
    0.4124   -1.3894   -0.3731 C   0  0  0  0  0  0  0  0  0  0  0  0
   -0.8399   -1.5109   -0.9620 C   0  0  0  0  0  0  0  0  0  0  0  0
   -1.9176   -0.7284   -0.5815 C   0  0  0  0  0  0  0  0  0  0  0  0
   -3.2188   -0.8798   -1.2213 C   0  0  0  0  0  0  0  0  0  0  0  0
   -3.3221   -1.7116   -2.1731 O   0  0  0  0  0  0  0  0  0  0  0  0
   -4.3808   -0.1608   -0.8534 N   0  0  0  0  0  0  0  0  0  0  0  0
   -5.6594   -0.3337   -1.5101 C   0  0  1  0  0  0  0  0  0  0  0  0
   -6.7652   -0.7437   -0.5726 C   0  0  0  0  0  0  0  0  0  0  0  0
   -6.9379    0.3052    0.4753 C   0  0  0  0  0  0  0  0  0  0  0  0
   -8.0375   -0.1216    1.3890 C   0  0  0  0  0  0  0  0  0  0  0  0
   -8.6443   -1.1925    1.2246 O   0  0  0  0  0  0  0  0  0  0  0  0
   -8.3513    0.7314    2.4298 O   0  0  0  0  0  0  0  0  0  0  0  0
   -6.0315    0.9694   -2.1198 C   0  0  0  0  0  0  0  0  0  0  0  0
   -5.2809    2.0009   -2.0207 O   0  0  0  0  0  0  0  0  0  0  0  0
   -7.2041    1.1788   -2.8379 O   0  0  0  0  0  0  0  0  0  0  0  0
   -1.6835    0.1874    0.4218 C   0  0  0  0  0  0  0  0  0  0  0  0
   -0.4293    0.3099    1.0120 C   0  0  0  0  0  0  0  0  0  0  0  0
    4.7671   -0.7129   -0.9675 N   0  0  0  0  0  0  0  0  0  0  0  0
    9.9881    1.4159    1.5815 H   0  0  0  0  0  0  0  0  0  0  0  0
    9.3636    0.4820    2.9663 H   0  0  0  0  0  0  0  0  0  0  0  0
    6.8778    1.8571    2.0183 H   0  0  0  0  0  0  0  0  0  0  0  0
    4.4555    1.9973    1.6676 H   0  0  0  0  0  0  0  0  0  0  0  0
    2.6754    1.7587   -0.0590 H   0  0  0  0  0  0  0  0  0  0  0  0
    4.0867    1.7630   -1.1792 H   0  0  0  0  0  0  0  0  0  0  0  0
    2.7012   -0.3222   -1.2955 H   0  0  0  0  0  0  0  0  0  0  0  0
    3.9584   -0.6231    1.4858 H   0  0  0  0  0  0  0  0  0  0  0  0
    3.0766   -1.9847    0.6502 H   0  0  0  0  0  0  0  0  0  0  0  0
    1.9677    0.2864    2.1334 H   0  0  0  0  0  0  0  0  0  0  0  0
    1.2179   -2.0301   -0.6974 H   0  0  0  0  0  0  0  0  0  0  0  0
   -1.0321   -2.2288   -1.7521 H   0  0  0  0  0  0  0  0  0  0  0  0
   -4.3238    0.5285   -0.0740 H   0  0  0  0  0  0  0  0  0  0  0  0
   -5.5960   -1.0792   -2.3360 H   0  0  0  0  0  0  0  0  0  0  0  0
   -6.5719   -1.7355   -0.1068 H   0  0  0  0  0  0  0  0  0  0  0  0
   -7.6744   -0.8696   -1.1924 H   0  0  0  0  0  0  0  0  0  0  0  0
   -7.1305    1.2912    0.0322 H   0  0  0  0  0  0  0  0  0  0  0  0
   -5.9927    0.3531    1.0771 H   0  0  0  0  0  0  0  0  0  0  0  0
   -8.9443    0.3675    3.1822 H   0  0  0  0  0  0  0  0  0  0  0  0
   -7.6422    2.1121   -2.8882 H   0  0  0  0  0  0  0  0  0  0  0  0
   -2.5074    0.8264    0.7533 H   0  0  0  0  0  0  0  0  0  0  0  0
   -0.2809    1.0388    1.7960 H   0  0  0  0  0  0  0  0  0  0  0  0
    4.8937   -1.3373   -1.7920 H   0  0  0  0  0  0  0  0  0  0  0  0
  1  2  1  0
  2  3  2  0
  3  4  1  0
  4  5  2  0
  4  6  1  0
  6  7  2  0
  7  8  1  0
  7  9  1  0
  9 10  1  0
 10 11  1  0
 11 12  1  0
 12 13  1  0
 13 14  1  0
 14 15  2  0
 15 16  1  0
 16 17  2  0
 17 18  1  0
 18 19  2  0
 18 20  1  0
 20 21  1  0
 21 22  1  0
 22 23  1  0
 23 24  1  0
 24 25  2  0
 24 26  1  0
 21 27  1  0
 27 28  2  0
 27 29  1  0
 17 30  1  0
 30 31  2  0
 11 32  1  0
  8  2  1  0
 31 14  1  0
 32  6  1  0
  1 33  1  0
  1 34  1  0
  8 35  1  0
  9 36  1  0
 10 37  1  0
 10 38  1  0
 11 39  1  6
 12 40  1  0
 12 41  1  0
 13 42  1  0
 15 43  1  0
 16 44  1  0
 20 45  1  0
 21 46  1  6
 22 47  1  0
 22 48  1  0
 23 49  1  0
 23 50  1  0
 26 51  1  0
 29 52  1  0
 30 53  1  0
 31 54  1  0
 32 55  1  0
M  END
$$$$

     RDKit          3D

 55 57  0  0  0  0  0  0  0  0999 V2000
   -9.2188    1.4319    0.4392 N   0  0  0  0  0  0  0  0  0  0  0  0
   -8.0055    0.8216    0.0237 C   0  0  0  0  0  0  0  0  0  0  0  0
   -7.8270    0.3665   -1.2382 N   0  0  0  0  0  0  0  0  0  0  0  0
   -6.6750   -0.2112   -1.6302 C   0  0  0  0  0  0  0  0  0  0  0  0
   -6.5023   -0.6392   -2.8088 O   0  0  0  0  0  0  0  0  0  0  0  0
   -5.6105   -0.3715   -0.7653 C   0  0  0  0  0  0  0  0  0  0  0  0
   -5.8023    0.0962    0.5216 C   0  0  0  0  0  0  0  0  0  0  0  0
   -6.9692    0.6671    0.8715 N   0  0  0  0  0  0  0  0  0  0  0  0
   -4.7180   -0.0611    1.4263 N   0  0  0  0  0  0  0  0  0  0  0  0
   -3.6169   -0.9867    1.1302 C   0  0  0  0  0  0  0  0  0  0  0  0
   -3.1873   -0.7271   -0.3238 C   0  0  2  0  0  0  0  0  0  0  0  0
   -2.8692    0.7654   -0.4898 C   0  0  0  0  0  0  0  0  0  0  0  0
   -1.8139    1.2118    0.3630 N   0  0  0  0  0  0  0  0  0  0  0  0
   -0.4899    0.7432    0.1525 C   0  0  0  0  0  0  0  0  0  0  0  0
    0.4861    0.9537    1.1247 C   0  0  0  0  0  0  0  0  0  0  0  0
    1.7732    0.5119    0.9122 C   0  0  0  0  0  0  0  0  0  0  0  0
    2.1499   -0.1378   -0.2315 C   0  0  0  0  0  0  0  0  0  0  0  0
    3.4993   -0.6028   -0.4386 C   0  0  0  0  0  0  0  0  0  0  0  0
    3.8469   -1.0779   -1.5462 O   0  0  0  0  0  0  0  0  0  0  0  0
    4.4488   -0.5334    0.5964 N   0  0  0  0  0  0  0  0  0  0  0  0
    5.8028   -1.0200    0.3399 C   0  0  1  0  0  0  0  0  0  0  0  0
    6.7168    0.1397    0.6749 C   0  0  0  0  0  0  0  0  0  0  0  0
    6.4459    1.3493   -0.1590 C   0  0  0  0  0  0  0  0  0  0  0  0
    6.6811    1.0479   -1.5812 C   0  0  0  0  0  0  0  0  0  0  0  0
    6.3768    1.9244   -2.4502 O   0  0  0  0  0  0  0  0  0  0  0  0
    7.2190   -0.1384   -2.0412 O   0  0  0  0  0  0  0  0  0  0  0  0
    6.0821   -2.1313    1.3017 C   0  0  0  0  0  0  0  0  0  0  0  0
    5.2086   -2.4748    2.1278 O   0  0  0  0  0  0  0  0  0  0  0  0
    7.2900   -2.7759    1.2828 O   0  0  0  0  0  0  0  0  0  0  0  0
    1.2077   -0.3533   -1.1967 C   0  0  0  0  0  0  0  0  0  0  0  0
   -0.0780    0.0835   -0.9941 C   0  0  0  0  0  0  0  0  0  0  0  0
   -4.3761   -0.9741   -1.1323 N   0  0  0  0  0  0  0  0  0  0  0  0
   -9.8831    0.8949    1.0259 H   0  0  0  0  0  0  0  0  0  0  0  0
   -9.4712    2.4025    0.1773 H   0  0  0  0  0  0  0  0  0  0  0  0
   -7.0879    1.0184    1.8692 H   0  0  0  0  0  0  0  0  0  0  0  0
   -4.7032    0.4858    2.3109 H   0  0  0  0  0  0  0  0  0  0  0  0
   -3.9985   -2.0284    1.1480 H   0  0  0  0  0  0  0  0  0  0  0  0
   -2.7873   -0.8016    1.8205 H   0  0  0  0  0  0  0  0  0  0  0  0
   -2.3733   -1.3833   -0.5988 H   0  0  0  0  0  0  0  0  0  0  0  0
   -3.8053    1.3620   -0.3631 H   0  0  0  0  0  0  0  0  0  0  0  0
   -2.5751    0.9126   -1.5364 H   0  0  0  0  0  0  0  0  0  0  0  0
   -1.9935    1.8694    1.1307 H   0  0  0  0  0  0  0  0  0  0  0  0
    0.1961    1.4732    2.0447 H   0  0  0  0  0  0  0  0  0  0  0  0
    2.4679    0.7229    1.7279 H   0  0  0  0  0  0  0  0  0  0  0  0
    4.2575   -0.1536    1.5546 H   0  0  0  0  0  0  0  0  0  0  0  0
    5.8519   -1.3524   -0.6928 H   0  0  0  0  0  0  0  0  0  0  0  0
    7.7689   -0.1905    0.5339 H   0  0  0  0  0  0  0  0  0  0  0  0
    6.5851    0.4083    1.7500 H   0  0  0  0  0  0  0  0  0  0  0  0
    7.1448    2.1599    0.1898 H   0  0  0  0  0  0  0  0  0  0  0  0
    5.4112    1.7318   -0.0228 H   0  0  0  0  0  0  0  0  0  0  0  0
    7.8775   -0.1146   -2.8111 H   0  0  0  0  0  0  0  0  0  0  0  0
    7.3476   -3.7891    1.4672 H   0  0  0  0  0  0  0  0  0  0  0  0
    1.4911   -0.8606   -2.0972 H   0  0  0  0  0  0  0  0  0  0  0  0
   -0.8273   -0.0867   -1.7849 H   0  0  0  0  0  0  0  0  0  0  0  0
   -4.3691   -1.5785   -1.9771 H   0  0  0  0  0  0  0  0  0  0  0  0
  1  2  1  0
  2  3  2  0
  3  4  1  0
  4  5  2  0
  4  6  1  0
  6  7  2  0
  7  8  1  0
  7  9  1  0
  9 10  1  0
 10 11  1  0
 11 12  1  0
 12 13  1  0
 13 14  1  0
 14 15  2  0
 15 16  1  0
 16 17  2  0
 17 18  1  0
 18 19  2  0
 18 20  1  0
 20 21  1  0
 21 22  1  0
 22 23  1  0
 23 24  1  0
 24 25  2  0
 24 26  1  0
 21 27  1  0
 27 28  2  0
 27 29  1  0
 17 30  1  0
 30 31  2  0
 11 32  1  0
  8  2  1  0
 31 14  1  0
 32  6  1  0
  1 33  1  0
  1 34  1  0
  8 35  1  0
  9 36  1  0
 10 37  1  0
 10 38  1  0
 11 39  1  6
 12 40  1  0
 12 41  1  0
 13 42  1  0
 15 43  1  0
 16 44  1  0
 20 45  1  0
 21 46  1  6
 22 47  1  0
 22 48  1  0
 23 49  1  0
 23 50  1  0
 26 51  1  0
 29 52  1  0
 30 53  1  0
 31 54  1  0
 32 55  1  0
M  END
$$$$

     RDKit          3D

 55 57  0  0  0  0  0  0  0  0999 V2000
   -7.5215    3.1451   -0.4689 N   0  0  0  0  0  0  0  0  0  0  0  0
   -6.7833    1.9200   -0.6615 C   0  0  0  0  0  0  0  0  0  0  0  0
   -6.3330    1.5686   -1.8780 N   0  0  0  0  0  0  0  0  0  0  0  0
   -5.6483    0.4198   -2.0171 C   0  0  0  0  0  0  0  0  0  0  0  0
   -5.1955    0.0277   -3.1332 O   0  0  0  0  0  0  0  0  0  0  0  0
   -5.3813   -0.4323   -0.9470 C   0  0  0  0  0  0  0  0  0  0  0  0
   -5.8553   -0.0449    0.2844 C   0  0  0  0  0  0  0  0  0  0  0  0
   -6.5315    1.1040    0.3820 N   0  0  0  0  0  0  0  0  0  0  0  0
   -5.5951   -0.8991    1.3984 N   0  0  0  0  0  0  0  0  0  0  0  0
   -5.2571   -2.2848    1.1090 C   0  0  0  0  0  0  0  0  0  0  0  0
   -4.1528   -2.3144    0.0703 C   0  0  2  0  0  0  0  0  0  0  0  0
   -2.9716   -1.5636    0.6451 C   0  0  0  0  0  0  0  0  0  0  0  0
   -1.8574   -1.5378   -0.2815 N   0  0  0  0  0  0  0  0  0  0  0  0
   -0.6282   -0.8958    0.0165 C   0  0  0  0  0  0  0  0  0  0  0  0
   -0.4497   -0.2545    1.2423 C   0  0  0  0  0  0  0  0  0  0  0  0
    0.7466    0.3639    1.5181 C   0  0  0  0  0  0  0  0  0  0  0  0
    1.7811    0.3500    0.5730 C   0  0  0  0  0  0  0  0  0  0  0  0
    3.0411    1.0074    0.8661 C   0  0  0  0  0  0  0  0  0  0  0  0
    3.1763    1.7349    1.9044 O   0  0  0  0  0  0  0  0  0  0  0  0
    4.1594    0.8654    0.0161 N   0  0  0  0  0  0  0  0  0  0  0  0
    5.4371    1.5094    0.2798 C   0  0  1  0  0  0  0  0  0  0  0  0
    6.4894    0.4703    0.4848 C   0  0  0  0  0  0  0  0  0  0  0  0
    6.6723   -0.4295   -0.7125 C   0  0  0  0  0  0  0  0  0  0  0  0
    7.7388   -1.4216   -0.3984 C   0  0  0  0  0  0  0  0  0  0  0  0
    7.5620   -2.3480    0.4378 O   0  0  0  0  0  0  0  0  0  0  0  0
    8.9866   -1.3770   -1.0127 O   0  0  0  0  0  0  0  0  0  0  0  0
    5.7844    2.4795   -0.7884 C   0  0  0  0  0  0  0  0  0  0  0  0
    5.0371    2.6892   -1.7807 O   0  0  0  0  0  0  0  0  0  0  0  0
    6.9634    3.2104   -0.7442 O   0  0  0  0  0  0  0  0  0  0  0  0
    1.5808   -0.2850   -0.6205 C   0  0  0  0  0  0  0  0  0  0  0  0
    0.3721   -0.9211   -0.9234 C   0  0  0  0  0  0  0  0  0  0  0  0
   -4.6559   -1.6439   -1.1129 N   0  0  0  0  0  0  0  0  0  0  0  0
   -8.2133    3.2506    0.3052 H   0  0  0  0  0  0  0  0  0  0  0  0
   -7.3884    3.9670   -1.0973 H   0  0  0  0  0  0  0  0  0  0  0  0
   -6.8896    1.3898    1.3322 H   0  0  0  0  0  0  0  0  0  0  0  0
   -5.6574   -0.5009    2.3527 H   0  0  0  0  0  0  0  0  0  0  0  0
   -6.1390   -2.8584    0.7556 H   0  0  0  0  0  0  0  0  0  0  0  0
   -4.8294   -2.6948    2.0502 H   0  0  0  0  0  0  0  0  0  0  0  0
   -3.8992   -3.3723   -0.1603 H   0  0  0  0  0  0  0  0  0  0  0  0
   -2.6265   -2.0361    1.5815 H   0  0  0  0  0  0  0  0  0  0  0  0
   -3.3283   -0.5527    0.9064 H   0  0  0  0  0  0  0  0  0  0  0  0
   -1.9638   -2.0083   -1.1995 H   0  0  0  0  0  0  0  0  0  0  0  0
   -1.2260   -0.2348    1.9713 H   0  0  0  0  0  0  0  0  0  0  0  0
    0.9612    0.8827    2.4461 H   0  0  0  0  0  0  0  0  0  0  0  0
    4.1017    0.2863   -0.8337 H   0  0  0  0  0  0  0  0  0  0  0  0
    5.3168    2.0777    1.2234 H   0  0  0  0  0  0  0  0  0  0  0  0
    7.4400    0.9804    0.7467 H   0  0  0  0  0  0  0  0  0  0  0  0
    6.2032   -0.1299    1.3721 H   0  0  0  0  0  0  0  0  0  0  0  0
    6.8485    0.1061   -1.6403 H   0  0  0  0  0  0  0  0  0  0  0  0
    5.7228   -1.0126   -0.8450 H   0  0  0  0  0  0  0  0  0  0  0  0
    9.7072   -2.0660   -0.8357 H   0  0  0  0  0  0  0  0  0  0  0  0
    7.0648    4.0737   -1.2697 H   0  0  0  0  0  0  0  0  0  0  0  0
    2.3359   -0.3370   -1.4086 H   0  0  0  0  0  0  0  0  0  0  0  0
    0.2568   -1.4105   -1.8756 H   0  0  0  0  0  0  0  0  0  0  0  0
   -4.5095   -2.0122   -2.0825 H   0  0  0  0  0  0  0  0  0  0  0  0
  1  2  1  0
  2  3  2  0
  3  4  1  0
  4  5  2  0
  4  6  1  0
  6  7  2  0
  7  8  1  0
  7  9  1  0
  9 10  1  0
 10 11  1  0
 11 12  1  0
 12 13  1  0
 13 14  1  0
 14 15  2  0
 15 16  1  0
 16 17  2  0
 17 18  1  0
 18 19  2  0
 18 20  1  0
 20 21  1  0
 21 22  1  0
 22 23  1  0
 23 24  1  0
 24 25  2  0
 24 26  1  0
 21 27  1  0
 27 28  2  0
 27 29  1  0
 17 30  1  0
 30 31  2  0
 11 32  1  0
  8  2  1  0
 31 14  1  0
 32  6  1  0
  1 33  1  0
  1 34  1  0
  8 35  1  0
  9 36  1  0
 10 37  1  0
 10 38  1  0
 11 39  1  6
 12 40  1  0
 12 41  1  0
 13 42  1  0
 15 43  1  0
 16 44  1  0
 20 45  1  0
 21 46  1  1
 22 47  1  0
 22 48  1  0
 23 49  1  0
 23 50  1  0
 26 51  1  0
 29 52  1  0
 30 53  1  0
 31 54  1  0
 32 55  1  0
M  END
$$$$

     RDKit          3D

 55 57  0  0  0  0  0  0  0  0999 V2000
   -9.2384    1.6108    0.0692 N   0  0  0  0  0  0  0  0  0  0  0  0
   -7.8880    1.2317   -0.1484 C   0  0  0  0  0  0  0  0  0  0  0  0
   -6.9929    2.1607   -0.5113 N   0  0  0  0  0  0  0  0  0  0  0  0
   -5.7091    1.8524   -0.7294 C   0  0  0  0  0  0  0  0  0  0  0  0
   -4.8298    2.6857   -1.0716 O   0  0  0  0  0  0  0  0  0  0  0  0
   -5.2973    0.5312   -0.5741 C   0  0  0  0  0  0  0  0  0  0  0  0
   -6.2231   -0.4189   -0.2001 C   0  0  0  0  0  0  0  0  0  0  0  0
   -7.4825   -0.0589    0.0031 N   0  0  0  0  0  0  0  0  0  0  0  0
   -5.7954   -1.7633   -0.0446 N   0  0  0  0  0  0  0  0  0  0  0  0
   -4.4801   -2.2252   -0.3430 C   0  0  0  0  0  0  0  0  0  0  0  0
   -3.4818   -1.1037   -0.1875 C   0  0  2  0  0  0  0  0  0  0  0  0
   -3.2510   -0.8172    1.2801 C   0  0  0  0  0  0  0  0  0  0  0  0
   -2.2739    0.2460    1.3877 N   0  0  0  0  0  0  0  0  0  0  0  0
   -0.8992    0.0221    1.0288 C   0  0  0  0  0  0  0  0  0  0  0  0
   -0.4061   -1.2502    0.7652 C   0  0  0  0  0  0  0  0  0  0  0  0
    0.9021   -1.4679    0.4097 C   0  0  0  0  0  0  0  0  0  0  0  0
    1.7878   -0.4186    0.3000 C   0  0  0  0  0  0  0  0  0  0  0  0
    3.1849   -0.6839   -0.0966 C   0  0  0  0  0  0  0  0  0  0  0  0
    3.4694   -1.7842   -0.6823 O   0  0  0  0  0  0  0  0  0  0  0  0
    4.2415    0.2096    0.1334 N   0  0  0  0  0  0  0  0  0  0  0  0
    5.6242   -0.1009   -0.2830 C   0  0  1  0  0  0  0  0  0  0  0  0
    6.1058    0.9144   -1.2314 C   0  0  0  0  0  0  0  0  0  0  0  0
    7.5009    0.7325   -1.7062 C   0  0  0  0  0  0  0  0  0  0  0  0
    8.5770    0.8853   -0.7477 C   0  0  0  0  0  0  0  0  0  0  0  0
    9.6617    0.2796   -0.8845 O   0  0  0  0  0  0  0  0  0  0  0  0
    8.4306    1.7202    0.3557 O   0  0  0  0  0  0  0  0  0  0  0  0
    6.4317   -0.4485    0.8842 C   0  0  0  0  0  0  0  0  0  0  0  0
    5.9392   -0.1606    2.0401 O   0  0  0  0  0  0  0  0  0  0  0  0
    7.6565   -1.0558    0.9262 O   0  0  0  0  0  0  0  0  0  0  0  0
    1.3310    0.8506    0.5549 C   0  0  0  0  0  0  0  0  0  0  0  0
    0.0111    1.0489    0.9107 C   0  0  0  0  0  0  0  0  0  0  0  0
   -3.9616    0.1402   -0.7943 N   0  0  0  0  0  0  0  0  0  0  0  0
   -9.5195    2.0155    0.9782 H   0  0  0  0  0  0  0  0  0  0  0  0
   -9.9186    1.4721   -0.6927 H   0  0  0  0  0  0  0  0  0  0  0  0
   -8.1932   -0.7527    0.2839 H   0  0  0  0  0  0  0  0  0  0  0  0
   -6.4910   -2.4663    0.3129 H   0  0  0  0  0  0  0  0  0  0  0  0
   -4.1393   -3.0365    0.3545 H   0  0  0  0  0  0  0  0  0  0  0  0
   -4.3692   -2.6284   -1.3666 H   0  0  0  0  0  0  0  0  0  0  0  0
   -2.5750   -1.3613   -0.7472 H   0  0  0  0  0  0  0  0  0  0  0  0
   -2.8980   -1.7469    1.7982 H   0  0  0  0  0  0  0  0  0  0  0  0
   -4.1962   -0.5393    1.7819 H   0  0  0  0  0  0  0  0  0  0  0  0
   -2.5143    1.1857    1.7174 H   0  0  0  0  0  0  0  0  0  0  0  0
   -1.0827   -2.1138    0.8588 H   0  0  0  0  0  0  0  0  0  0  0  0
    1.2092   -2.4747    0.2211 H   0  0  0  0  0  0  0  0  0  0  0  0
    4.0985    1.1234    0.6064 H   0  0  0  0  0  0  0  0  0  0  0  0
    5.5145   -1.0675   -0.8827 H   0  0  0  0  0  0  0  0  0  0  0  0
    5.4618    0.7998   -2.1721 H   0  0  0  0  0  0  0  0  0  0  0  0
    5.9519    1.9705   -0.8580 H   0  0  0  0  0  0  0  0  0  0  0  0
    7.7092    1.4338   -2.5876 H   0  0  0  0  0  0  0  0  0  0  0  0
    7.6048   -0.2805   -2.2188 H   0  0  0  0  0  0  0  0  0  0  0  0
    9.2378    2.0377    0.8928 H   0  0  0  0  0  0  0  0  0  0  0  0
    8.1092   -1.4293    1.7507 H   0  0  0  0  0  0  0  0  0  0  0  0
    2.0330    1.6814    0.4690 H   0  0  0  0  0  0  0  0  0  0  0  0
   -0.3309    2.0632    1.1091 H   0  0  0  0  0  0  0  0  0  0  0  0
   -3.3473    0.7496   -1.3861 H   0  0  0  0  0  0  0  0  0  0  0  0
  1  2  1  0
  2  3  2  0
  3  4  1  0
  4  5  2  0
  4  6  1  0
  6  7  2  0
  7  8  1  0
  7  9  1  0
  9 10  1  0
 10 11  1  0
 11 12  1  0
 12 13  1  0
 13 14  1  0
 14 15  2  0
 15 16  1  0
 16 17  2  0
 17 18  1  0
 18 19  2  0
 18 20  1  0
 20 21  1  0
 21 22  1  0
 22 23  1  0
 23 24  1  0
 24 25  2  0
 24 26  1  0
 21 27  1  0
 27 28  2  0
 27 29  1  0
 17 30  1  0
 30 31  2  0
 11 32  1  0
  8  2  1  0
 31 14  1  0
 32  6  1  0
  1 33  1  0
  1 34  1  0
  8 35  1  0
  9 36  1  0
 10 37  1  0
 10 38  1  0
 11 39  1  6
 12 40  1  0
 12 41  1  0
 13 42  1  0
 15 43  1  0
 16 44  1  0
 20 45  1  0
 21 46  1  6
 22 47  1  0
 22 48  1  0
 23 49  1  0
 23 50  1  0
 26 51  1  0
 29 52  1  0
 30 53  1  0
 31 54  1  0
 32 55  1  0
M  END
$$$$

     RDKit          3D

 55 57  0  0  0  0  0  0  0  0999 V2000
    9.8310    0.2942    1.5726 N   0  0  0  0  0  0  0  0  0  0  0  0
    8.4486    0.2791    1.2489 C   0  0  0  0  0  0  0  0  0  0  0  0
    7.5674    0.3779    2.2608 N   0  0  0  0  0  0  0  0  0  0  0  0
    6.2670    0.3618    1.9175 C   0  0  0  0  0  0  0  0  0  0  0  0
    5.3636    0.4490    2.7920 O   0  0  0  0  0  0  0  0  0  0  0  0
    5.8559    0.2491    0.5901 C   0  0  0  0  0  0  0  0  0  0  0  0
    6.8057    0.1510   -0.4046 C   0  0  0  0  0  0  0  0  0  0  0  0
    8.1013    0.1687   -0.0448 N   0  0  0  0  0  0  0  0  0  0  0  0
    6.3575    0.0374   -1.7340 N   0  0  0  0  0  0  0  0  0  0  0  0
    4.9621    0.0920   -2.1019 C   0  0  0  0  0  0  0  0  0  0  0  0
    4.0911   -0.4049   -0.9971 C   0  0  2  0  0  0  0  0  0  0  0  0
    2.6289   -0.1373   -1.2932 C   0  0  0  0  0  0  0  0  0  0  0  0
    1.8075   -0.6192   -0.2209 N   0  0  0  0  0  0  0  0  0  0  0  0
    0.4009   -0.4452   -0.1656 C   0  0  0  0  0  0  0  0  0  0  0  0
   -0.3088    0.1854   -1.1335 C   0  0  0  0  0  0  0  0  0  0  0  0
   -1.6976    0.3434   -1.0106 C   0  0  0  0  0  0  0  0  0  0  0  0
   -2.3935   -0.1233    0.0743 C   0  0  0  0  0  0  0  0  0  0  0  0
   -3.8365    0.0465    0.2327 C   0  0  0  0  0  0  0  0  0  0  0  0
   -4.3944   -0.4588    1.2414 O   0  0  0  0  0  0  0  0  0  0  0  0
   -4.6011    0.7599   -0.7145 N   0  0  0  0  0  0  0  0  0  0  0  0
   -6.0666    0.8819   -0.4459 C   0  0  1  0  0  0  0  0  0  0  0  0
   -6.6557   -0.4340   -0.7254 C   0  0  0  0  0  0  0  0  0  0  0  0
   -8.1044   -0.5827   -0.4750 C   0  0  0  0  0  0  0  0  0  0  0  0
   -8.3991   -0.5077    0.9719 C   0  0  0  0  0  0  0  0  0  0  0  0
   -9.5487   -0.2137    1.3986 O   0  0  0  0  0  0  0  0  0  0  0  0
   -7.4049   -0.7676    1.9395 O   0  0  0  0  0  0  0  0  0  0  0  0
   -6.3251    1.6131    0.7631 C   0  0  0  0  0  0  0  0  0  0  0  0
   -5.3776    1.9063    1.5749 O   0  0  0  0  0  0  0  0  0  0  0  0
   -7.5668    2.0686    1.1602 O   0  0  0  0  0  0  0  0  0  0  0  0
   -1.6543   -0.7708    1.0625 C   0  0  0  0  0  0  0  0  0  0  0  0
   -0.2960   -0.9147    0.9225 C   0  0  0  0  0  0  0  0  0  0  0  0
    4.4889    0.2348    0.2360 N   0  0  0  0  0  0  0  0  0  0  0  0
   10.3316    1.2077    1.3665 H   0  0  0  0  0  0  0  0  0  0  0  0
   10.3086   -0.5337    1.9808 H   0  0  0  0  0  0  0  0  0  0  0  0
    8.8022    0.0927   -0.8101 H   0  0  0  0  0  0  0  0  0  0  0  0
    7.0886   -0.0929   -2.4876 H   0  0  0  0  0  0  0  0  0  0  0  0
    4.6608    1.1398   -2.3787 H   0  0  0  0  0  0  0  0  0  0  0  0
    4.7768   -0.5386   -3.0070 H   0  0  0  0  0  0  0  0  0  0  0  0
    4.2339   -1.4985   -0.9031 H   0  0  0  0  0  0  0  0  0  0  0  0
    2.5220    0.9199   -1.5121 H   0  0  0  0  0  0  0  0  0  0  0  0
    2.3374   -0.7002   -2.2093 H   0  0  0  0  0  0  0  0  0  0  0  0
    2.2933   -1.1250    0.5533 H   0  0  0  0  0  0  0  0  0  0  0  0
    0.1532    0.5732   -2.0027 H   0  0  0  0  0  0  0  0  0  0  0  0
   -2.2398    0.8555   -1.8102 H   0  0  0  0  0  0  0  0  0  0  0  0
   -4.1914    1.1915   -1.5708 H   0  0  0  0  0  0  0  0  0  0  0  0
   -6.3972    1.5835   -1.3092 H   0  0  0  0  0  0  0  0  0  0  0  0
   -6.0532   -1.2111   -0.1774 H   0  0  0  0  0  0  0  0  0  0  0  0
   -6.4189   -0.6526   -1.8276 H   0  0  0  0  0  0  0  0  0  0  0  0
   -8.4496   -1.5714   -0.8973 H   0  0  0  0  0  0  0  0  0  0  0  0
   -8.6799    0.1982   -1.0278 H   0  0  0  0  0  0  0  0  0  0  0  0
   -7.5385   -0.4458    2.8676 H   0  0  0  0  0  0  0  0  0  0  0  0
   -7.7427    2.2591    2.1353 H   0  0  0  0  0  0  0  0  0  0  0  0
   -2.1957   -1.1432    1.9228 H   0  0  0  0  0  0  0  0  0  0  0  0
    0.2363   -1.4284    1.7232 H   0  0  0  0  0  0  0  0  0  0  0  0
    3.8161    0.6932    0.8893 H   0  0  0  0  0  0  0  0  0  0  0  0
  1  2  1  0
  2  3  2  0
  3  4  1  0
  4  5  2  0
  4  6  1  0
  6  7  2  0
  7  8  1  0
  7  9  1  0
  9 10  1  0
 10 11  1  0
 11 12  1  0
 12 13  1  0
 13 14  1  0
 14 15  2  0
 15 16  1  0
 16 17  2  0
 17 18  1  0
 18 19  2  0
 18 20  1  0
 20 21  1  0
 21 22  1  0
 22 23  1  0
 23 24  1  0
 24 25  2  0
 24 26  1  0
 21 27  1  0
 27 28  2  0
 27 29  1  0
 17 30  1  0
 30 31  2  0
 11 32  1  0
  8  2  1  0
 31 14  1  0
 32  6  1  0
  1 33  1  0
  1 34  1  0
  8 35  1  0
  9 36  1  0
 10 37  1  0
 10 38  1  0
 11 39  1  1
 12 40  1  0
 12 41  1  0
 13 42  1  0
 15 43  1  0
 16 44  1  0
 20 45  1  0
 21 46  1  6
 22 47  1  0
 22 48  1  0
 23 49  1  0
 23 50  1  0
 26 51  1  0
 29 52  1  0
 30 53  1  0
 31 54  1  0
 32 55  1  0
M  END
$$$$

     RDKit          3D

 55 57  0  0  0  0  0  0  0  0999 V2000
   -9.1434    1.4373   -0.1922 N   0  0  0  0  0  0  0  0  0  0  0  0
   -7.7683    1.0881   -0.4158 C   0  0  0  0  0  0  0  0  0  0  0  0
   -6.9601    2.0435   -0.9444 N   0  0  0  0  0  0  0  0  0  0  0  0
   -5.6724    1.7403   -1.1592 C   0  0  0  0  0  0  0  0  0  0  0  0
   -4.8324    2.5508   -1.6463 O   0  0  0  0  0  0  0  0  0  0  0  0
   -5.2189    0.4646   -0.8326 C   0  0  0  0  0  0  0  0  0  0  0  0
   -6.0724   -0.4777   -0.2976 C   0  0  0  0  0  0  0  0  0  0  0  0
   -7.3553   -0.1415   -0.0959 N   0  0  0  0  0  0  0  0  0  0  0  0
   -5.5481   -1.7561    0.0127 N   0  0  0  0  0  0  0  0  0  0  0  0
   -4.1590   -2.1212   -0.0420 C   0  0  0  0  0  0  0  0  0  0  0  0
   -3.2555   -0.9064   -0.1622 C   0  0  2  0  0  0  0  0  0  0  0  0
   -3.1047   -0.2137    1.1770 C   0  0  0  0  0  0  0  0  0  0  0  0
   -2.2400    0.9131    1.0297 N   0  0  0  0  0  0  0  0  0  0  0  0
   -0.8330    0.7063    0.8422 C   0  0  0  0  0  0  0  0  0  0  0  0
   -0.0059    1.7978    0.5554 C   0  0  0  0  0  0  0  0  0  0  0  0
    1.3461    1.6160    0.3973 C   0  0  0  0  0  0  0  0  0  0  0  0
    1.9403    0.3718    0.5110 C   0  0  0  0  0  0  0  0  0  0  0  0
    3.4004    0.2476    0.3428 C   0  0  0  0  0  0  0  0  0  0  0  0
    4.1276    1.2717    0.4041 O   0  0  0  0  0  0  0  0  0  0  0  0
    4.0136   -1.0115    0.1108 N   0  0  0  0  0  0  0  0  0  0  0  0
    5.5019   -1.0892   -0.0491 C   0  0  1  0  0  0  0  0  0  0  0  0
    5.8849   -0.4997   -1.3427 C   0  0  0  0  0  0  0  0  0  0  0  0
    7.2801   -0.4395   -1.7818 C   0  0  0  0  0  0  0  0  0  0  0  0
    8.2489    0.3382   -1.0310 C   0  0  0  0  0  0  0  0  0  0  0  0
    9.3990   -0.1181   -0.7974 O   0  0  0  0  0  0  0  0  0  0  0  0
    7.9372    1.5976   -0.5567 O   0  0  0  0  0  0  0  0  0  0  0  0
    6.1371   -0.6239    1.1745 C   0  0  0  0  0  0  0  0  0  0  0  0
    5.4030   -0.1743    2.1392 O   0  0  0  0  0  0  0  0  0  0  0  0
    7.4814   -0.6031    1.4507 O   0  0  0  0  0  0  0  0  0  0  0  0
    1.1319   -0.6964    0.7905 C   0  0  0  0  0  0  0  0  0  0  0  0
   -0.2341   -0.5180    0.9522 C   0  0  0  0  0  0  0  0  0  0  0  0
   -3.8675    0.0908   -1.0329 N   0  0  0  0  0  0  0  0  0  0  0  0
   -9.9125    0.8213   -0.4696 H   0  0  0  0  0  0  0  0  0  0  0  0
   -9.3296    2.3602    0.2730 H   0  0  0  0  0  0  0  0  0  0  0  0
   -7.9883   -0.8786    0.3140 H   0  0  0  0  0  0  0  0  0  0  0  0
   -6.2261   -2.4934    0.3042 H   0  0  0  0  0  0  0  0  0  0  0  0
   -3.8906   -2.6076    0.9260 H   0  0  0  0  0  0  0  0  0  0  0  0
   -3.9721   -2.8698   -0.8358 H   0  0  0  0  0  0  0  0  0  0  0  0
   -2.3077   -1.2269   -0.6048 H   0  0  0  0  0  0  0  0  0  0  0  0
   -2.7954   -0.9119    1.9789 H   0  0  0  0  0  0  0  0  0  0  0  0
   -4.1005    0.1997    1.5163 H   0  0  0  0  0  0  0  0  0  0  0  0
   -2.5737    1.9119    1.0467 H   0  0  0  0  0  0  0  0  0  0  0  0
   -0.4663    2.7827    0.4633 H   0  0  0  0  0  0  0  0  0  0  0  0
    1.9828    2.4914    0.1723 H   0  0  0  0  0  0  0  0  0  0  0  0
    3.4206   -1.8655    0.0508 H   0  0  0  0  0  0  0  0  0  0  0  0
    5.6949   -2.2089   -0.0995 H   0  0  0  0  0  0  0  0  0  0  0  0
    5.2996   -0.9823   -2.1862 H   0  0  0  0  0  0  0  0  0  0  0  0
    5.4818    0.5616   -1.3540 H   0  0  0  0  0  0  0  0  0  0  0  0
    7.6294   -1.4936   -1.9763 H   0  0  0  0  0  0  0  0  0  0  0  0
    7.2654   -0.0023   -2.8345 H   0  0  0  0  0  0  0  0  0  0  0  0
    8.5438    1.9588    0.1906 H   0  0  0  0  0  0  0  0  0  0  0  0
    7.8490    0.1399    2.0628 H   0  0  0  0  0  0  0  0  0  0  0  0
    1.5813   -1.6858    0.8845 H   0  0  0  0  0  0  0  0  0  0  0  0
   -0.8398   -1.4005    1.1890 H   0  0  0  0  0  0  0  0  0  0  0  0
   -3.3084    0.5142   -1.7781 H   0  0  0  0  0  0  0  0  0  0  0  0
  1  2  1  0
  2  3  2  0
  3  4  1  0
  4  5  2  0
  4  6  1  0
  6  7  2  0
  7  8  1  0
  7  9  1  0
  9 10  1  0
 10 11  1  0
 11 12  1  0
 12 13  1  0
 13 14  1  0
 14 15  2  0
 15 16  1  0
 16 17  2  0
 17 18  1  0
 18 19  2  0
 18 20  1  0
 20 21  1  0
 21 22  1  0
 22 23  1  0
 23 24  1  0
 24 25  2  0
 24 26  1  0
 21 27  1  0
 27 28  2  0
 27 29  1  0
 17 30  1  0
 30 31  2  0
 11 32  1  0
  8  2  1  0
 31 14  1  0
 32  6  1  0
  1 33  1  0
  1 34  1  0
  8 35  1  0
  9 36  1  0
 10 37  1  0
 10 38  1  0
 11 39  1  6
 12 40  1  0
 12 41  1  0
 13 42  1  0
 15 43  1  0
 16 44  1  0
 20 45  1  0
 21 46  1  6
 22 47  1  0
 22 48  1  0
 23 49  1  0
 23 50  1  0
 26 51  1  0
 29 52  1  0
 30 53  1  0
 31 54  1  0
 32 55  1  0
M  END
$$$$

     RDKit          3D

 55 57  0  0  0  0  0  0  0  0999 V2000
    8.9819    1.5028   -0.5101 N   0  0  0  0  0  0  0  0  0  0  0  0
    7.5730    1.5351   -0.5740 C   0  0  0  0  0  0  0  0  0  0  0  0
    6.9072    2.4794   -1.2877 N   0  0  0  0  0  0  0  0  0  0  0  0
    5.5828    2.5252   -1.3568 C   0  0  0  0  0  0  0  0  0  0  0  0
    4.9566    3.4129   -2.0280 O   0  0  0  0  0  0  0  0  0  0  0  0
    4.8487    1.5665   -0.6701 C   0  0  0  0  0  0  0  0  0  0  0  0
    5.5206    0.6044    0.0566 C   0  0  0  0  0  0  0  0  0  0  0  0
    6.8511    0.6111    0.0874 N   0  0  0  0  0  0  0  0  0  0  0  0
    4.7440   -0.3842    0.7650 N   0  0  0  0  0  0  0  0  0  0  0  0
    3.4097    0.0232    1.1470 C   0  0  0  0  0  0  0  0  0  0  0  0
    2.7058    0.4629   -0.1477 C   0  0  2  0  0  0  0  0  0  0  0  0
    2.7714   -0.7830   -1.0427 C   0  0  0  0  0  0  0  0  0  0  0  0
    2.0649   -1.8219   -0.3284 N   0  0  0  0  0  0  0  0  0  0  0  0
    0.6655   -1.7316   -0.1510 C   0  0  0  0  0  0  0  0  0  0  0  0
   -0.0603   -0.8572   -0.9021 C   0  0  0  0  0  0  0  0  0  0  0  0
   -1.4237   -0.7661   -0.7068 C   0  0  0  0  0  0  0  0  0  0  0  0
   -2.0965   -1.5259    0.2224 C   0  0  0  0  0  0  0  0  0  0  0  0
   -3.5464   -1.3965    0.3898 C   0  0  0  0  0  0  0  0  0  0  0  0
   -4.1226   -1.9112    1.3978 O   0  0  0  0  0  0  0  0  0  0  0  0
   -4.3869   -0.7139   -0.5241 N   0  0  0  0  0  0  0  0  0  0  0  0
   -5.8405   -0.6051   -0.3181 C   0  0  1  0  0  0  0  0  0  0  0  0
   -6.1325    0.8902   -0.3227 C   0  0  0  0  0  0  0  0  0  0  0  0
   -5.4049    1.6335    0.7552 C   0  0  0  0  0  0  0  0  0  0  0  0
   -5.7463    1.1873    2.1189 C   0  0  0  0  0  0  0  0  0  0  0  0
   -6.5658    0.3011    2.4029 O   0  0  0  0  0  0  0  0  0  0  0  0
   -5.0949    1.8110    3.1759 O   0  0  0  0  0  0  0  0  0  0  0  0
   -6.5543   -1.1612   -1.4920 C   0  0  0  0  0  0  0  0  0  0  0  0
   -5.8920   -1.6238   -2.4442 O   0  0  0  0  0  0  0  0  0  0  0  0
   -7.9327   -1.1717   -1.5400 O   0  0  0  0  0  0  0  0  0  0  0  0
   -1.3659   -2.4127    0.9848 C   0  0  0  0  0  0  0  0  0  0  0  0
   -0.0064   -2.5079    0.7948 C   0  0  0  0  0  0  0  0  0  0  0  0
    3.4160    1.5809   -0.7155 N   0  0  0  0  0  0  0  0  0  0  0  0
    9.4444    1.3447    0.3998 H   0  0  0  0  0  0  0  0  0  0  0  0
    9.5461    1.6353   -1.3641 H   0  0  0  0  0  0  0  0  0  0  0  0
    7.3323   -0.1480    0.6580 H   0  0  0  0  0  0  0  0  0  0  0  0
    5.1836   -1.2910    0.9451 H   0  0  0  0  0  0  0  0  0  0  0  0
    2.8390   -0.7862    1.6294 H   0  0  0  0  0  0  0  0  0  0  0  0
    3.4716    0.9314    1.7805 H   0  0  0  0  0  0  0  0  0  0  0  0
    1.6547    0.6902    0.0422 H   0  0  0  0  0  0  0  0  0  0  0  0
    2.3469   -0.5840   -2.0410 H   0  0  0  0  0  0  0  0  0  0  0  0
    3.8262   -1.1132   -1.1675 H   0  0  0  0  0  0  0  0  0  0  0  0
    2.5426   -2.6409    0.0662 H   0  0  0  0  0  0  0  0  0  0  0  0
    0.3517   -0.2036   -1.6807 H   0  0  0  0  0  0  0  0  0  0  0  0
   -1.9924   -0.0699   -1.3055 H   0  0  0  0  0  0  0  0  0  0  0  0
   -3.9933   -0.2667   -1.3791 H   0  0  0  0  0  0  0  0  0  0  0  0
   -6.1049   -1.0955    0.6160 H   0  0  0  0  0  0  0  0  0  0  0  0
   -7.2231    1.0823   -0.2334 H   0  0  0  0  0  0  0  0  0  0  0  0
   -5.8209    1.3455   -1.2942 H   0  0  0  0  0  0  0  0  0  0  0  0
   -4.3030    1.5334    0.6233 H   0  0  0  0  0  0  0  0  0  0  0  0
   -5.7018    2.6953    0.6764 H   0  0  0  0  0  0  0  0  0  0  0  0
   -5.4746    1.8762    4.0991 H   0  0  0  0  0  0  0  0  0  0  0  0
   -8.3845   -1.8777   -2.1076 H   0  0  0  0  0  0  0  0  0  0  0  0
   -1.9008   -3.0128    1.7190 H   0  0  0  0  0  0  0  0  0  0  0  0
    0.5907   -3.1968    1.3824 H   0  0  0  0  0  0  0  0  0  0  0  0
    2.9432    2.3986   -1.1563 H   0  0  0  0  0  0  0  0  0  0  0  0
  1  2  1  0
  2  3  2  0
  3  4  1  0
  4  5  2  0
  4  6  1  0
  6  7  2  0
  7  8  1  0
  7  9  1  0
  9 10  1  0
 10 11  1  0
 11 12  1  0
 12 13  1  0
 13 14  1  0
 14 15  2  0
 15 16  1  0
 16 17  2  0
 17 18  1  0
 18 19  2  0
 18 20  1  0
 20 21  1  0
 21 22  1  0
 22 23  1  0
 23 24  1  0
 24 25  2  0
 24 26  1  0
 21 27  1  0
 27 28  2  0
 27 29  1  0
 17 30  1  0
 30 31  2  0
 11 32  1  0
  8  2  1  0
 31 14  1  0
 32  6  1  0
  1 33  1  0
  1 34  1  0
  8 35  1  0
  9 36  1  0
 10 37  1  0
 10 38  1  0
 11 39  1  1
 12 40  1  0
 12 41  1  0
 13 42  1  0
 15 43  1  0
 16 44  1  0
 20 45  1  0
 21 46  1  1
 22 47  1  0
 22 48  1  0
 23 49  1  0
 23 50  1  0
 26 51  1  0
 29 52  1  0
 30 53  1  0
 31 54  1  0
 32 55  1  0
M  END
$$$$

     RDKit          3D

 55 57  0  0  0  0  0  0  0  0999 V2000
   -9.2840    2.1895   -0.1533 N   0  0  0  0  0  0  0  0  0  0  0  0
   -8.0979    1.4968   -0.5033 C   0  0  0  0  0  0  0  0  0  0  0  0
   -7.5301    1.6792   -1.7221 N   0  0  0  0  0  0  0  0  0  0  0  0
   -6.4058    1.0453   -2.0993 C   0  0  0  0  0  0  0  0  0  0  0  0
   -5.8755    1.2101   -3.2244 O   0  0  0  0  0  0  0  0  0  0  0  0
   -5.7833    0.1715   -1.2395 C   0  0  0  0  0  0  0  0  0  0  0  0
   -6.3453   -0.0215   -0.0072 C   0  0  0  0  0  0  0  0  0  0  0  0
   -7.4803    0.6396    0.3316 N   0  0  0  0  0  0  0  0  0  0  0  0
   -5.7072   -0.9222    0.8864 N   0  0  0  0  0  0  0  0  0  0  0  0
   -4.6214   -1.7843    0.5547 C   0  0  0  0  0  0  0  0  0  0  0  0
   -4.0684   -1.6286   -0.8048 C   0  0  2  0  0  0  0  0  0  0  0  0
   -2.5582   -1.4850   -0.7616 C   0  0  0  0  0  0  0  0  0  0  0  0
   -2.2050   -0.3282    0.0141 N   0  0  0  0  0  0  0  0  0  0  0  0
   -0.8463    0.0167    0.1820 C   0  0  0  0  0  0  0  0  0  0  0  0
    0.1615   -0.7377   -0.3829 C   0  0  0  0  0  0  0  0  0  0  0  0
    1.4708   -0.4205   -0.2336 C   0  0  0  0  0  0  0  0  0  0  0  0
    1.8800    0.6697    0.4874 C   0  0  0  0  0  0  0  0  0  0  0  0
    3.3021    1.0355    0.6633 C   0  0  0  0  0  0  0  0  0  0  0  0
    3.6324    2.0412    1.3348 O   0  0  0  0  0  0  0  0  0  0  0  0
    4.3307    0.2692    0.0843 N   0  0  0  0  0  0  0  0  0  0  0  0
    5.7822    0.6441    0.2632 C   0  0  1  0  0  0  0  0  0  0  0  0
    6.3491   -0.5893    0.8950 C   0  0  0  0  0  0  0  0  0  0  0  0
    7.7565   -0.6569    1.2833 C   0  0  0  0  0  0  0  0  0  0  0  0
    8.7724   -0.5247    0.2435 C   0  0  0  0  0  0  0  0  0  0  0  0
    9.6807    0.3320    0.3644 O   0  0  0  0  0  0  0  0  0  0  0  0
    8.7387   -1.3414   -0.8723 O   0  0  0  0  0  0  0  0  0  0  0  0
    6.3336    0.9154   -1.0679 C   0  0  0  0  0  0  0  0  0  0  0  0
    5.5775    0.6712   -2.0989 O   0  0  0  0  0  0  0  0  0  0  0  0
    7.5647    1.4096   -1.4026 O   0  0  0  0  0  0  0  0  0  0  0  0
    0.8875    1.4514    1.0696 C   0  0  0  0  0  0  0  0  0  0  0  0
   -0.4419    1.1285    0.9176 C   0  0  0  0  0  0  0  0  0  0  0  0
   -4.5980   -0.5351   -1.5592 N   0  0  0  0  0  0  0  0  0  0  0  0
   -9.4815    2.3573    0.8476 H   0  0  0  0  0  0  0  0  0  0  0  0
   -9.9583    2.5332   -0.8584 H   0  0  0  0  0  0  0  0  0  0  0  0
   -7.8980    0.4906    1.2584 H   0  0  0  0  0  0  0  0  0  0  0  0
   -6.0685   -0.9509    1.8634 H   0  0  0  0  0  0  0  0  0  0  0  0
   -3.8072   -1.5981    1.3115 H   0  0  0  0  0  0  0  0  0  0  0  0
   -4.9054   -2.8585    0.7345 H   0  0  0  0  0  0  0  0  0  0  0  0
   -4.2484   -2.5687   -1.4016 H   0  0  0  0  0  0  0  0  0  0  0  0
   -2.0737   -2.4123   -0.3968 H   0  0  0  0  0  0  0  0  0  0  0  0
   -2.2333   -1.2961   -1.8149 H   0  0  0  0  0  0  0  0  0  0  0  0
   -2.9372    0.2508    0.4477 H   0  0  0  0  0  0  0  0  0  0  0  0
   -0.1892   -1.6089   -0.9590 H   0  0  0  0  0  0  0  0  0  0  0  0
    2.2159   -1.0452   -0.6978 H   0  0  0  0  0  0  0  0  0  0  0  0
    4.1512   -0.5708   -0.4812 H   0  0  0  0  0  0  0  0  0  0  0  0
    5.8492    1.5286    0.8866 H   0  0  0  0  0  0  0  0  0  0  0  0
    6.1179   -1.4776    0.2270 H   0  0  0  0  0  0  0  0  0  0  0  0
    5.7180   -0.7988    1.8249 H   0  0  0  0  0  0  0  0  0  0  0  0
    7.9217   -1.6853    1.7360 H   0  0  0  0  0  0  0  0  0  0  0  0
    7.9733    0.0214    2.1626 H   0  0  0  0  0  0  0  0  0  0  0  0
    9.5295   -1.4028   -1.5103 H   0  0  0  0  0  0  0  0  0  0  0  0
    7.9792    1.1981   -2.3266 H   0  0  0  0  0  0  0  0  0  0  0  0
    1.2332    2.3164    1.6414 H   0  0  0  0  0  0  0  0  0  0  0  0
   -1.1867    1.7697    1.3924 H   0  0  0  0  0  0  0  0  0  0  0  0
   -4.0737   -0.2335   -2.4084 H   0  0  0  0  0  0  0  0  0  0  0  0
  1  2  1  0
  2  3  2  0
  3  4  1  0
  4  5  2  0
  4  6  1  0
  6  7  2  0
  7  8  1  0
  7  9  1  0
  9 10  1  0
 10 11  1  0
 11 12  1  0
 12 13  1  0
 13 14  1  0
 14 15  2  0
 15 16  1  0
 16 17  2  0
 17 18  1  0
 18 19  2  0
 18 20  1  0
 20 21  1  0
 21 22  1  0
 22 23  1  0
 23 24  1  0
 24 25  2  0
 24 26  1  0
 21 27  1  0
 27 28  2  0
 27 29  1  0
 17 30  1  0
 30 31  2  0
 11 32  1  0
  8  2  1  0
 31 14  1  0
 32  6  1  0
  1 33  1  0
  1 34  1  0
  8 35  1  0
  9 36  1  0
 10 37  1  0
 10 38  1  0
 11 39  1  6
 12 40  1  0
 12 41  1  0
 13 42  1  0
 15 43  1  0
 16 44  1  0
 20 45  1  0
 21 46  1  1
 22 47  1  0
 22 48  1  0
 23 49  1  0
 23 50  1  0
 26 51  1  0
 29 52  1  0
 30 53  1  0
 31 54  1  0
 32 55  1  0
M  END
$$$$

     RDKit          3D

 55 57  0  0  0  0  0  0  0  0999 V2000
    7.3214    3.2550    1.2088 N   0  0  0  0  0  0  0  0  0  0  0  0
    6.7904    1.9879    0.8644 C   0  0  0  0  0  0  0  0  0  0  0  0
    7.2180    0.9115    1.5613 N   0  0  0  0  0  0  0  0  0  0  0  0
    6.7670   -0.3222    1.2999 C   0  0  0  0  0  0  0  0  0  0  0  0
    7.1564   -1.3382    1.9415 O   0  0  0  0  0  0  0  0  0  0  0  0
    5.8402   -0.5159    0.2943 C   0  0  0  0  0  0  0  0  0  0  0  0
    5.3881    0.5820   -0.4345 C   0  0  0  0  0  0  0  0  0  0  0  0
    5.8922    1.7941   -0.1088 N   0  0  0  0  0  0  0  0  0  0  0  0
    4.4335    0.4266   -1.4799 N   0  0  0  0  0  0  0  0  0  0  0  0
    4.2674   -0.8945   -2.0529 C   0  0  0  0  0  0  0  0  0  0  0  0
    4.1414   -1.8626   -0.9172 C   0  0  2  0  0  0  0  0  0  0  0  0
    2.8970   -1.5449   -0.1236 C   0  0  0  0  0  0  0  0  0  0  0  0
    1.7526   -1.6654   -0.9783 N   0  0  0  0  0  0  0  0  0  0  0  0
    0.4215   -1.3904   -0.4935 C   0  0  0  0  0  0  0  0  0  0  0  0
    0.2078   -1.0010    0.8107 C   0  0  0  0  0  0  0  0  0  0  0  0
   -1.0396   -0.7324    1.3055 C   0  0  0  0  0  0  0  0  0  0  0  0
   -2.1727   -0.8410    0.5032 C   0  0  0  0  0  0  0  0  0  0  0  0
   -3.4907   -0.5501    1.0491 C   0  0  0  0  0  0  0  0  0  0  0  0
   -3.5767   -0.1600    2.2349 O   0  0  0  0  0  0  0  0  0  0  0  0
   -4.6361   -0.7089    0.2486 N   0  0  0  0  0  0  0  0  0  0  0  0
   -5.9340   -0.3919    0.8802 C   0  0  1  0  0  0  0  0  0  0  0  0
   -6.4554    0.8257    0.1151 C   0  0  0  0  0  0  0  0  0  0  0  0
   -5.3970    1.9183    0.3149 C   0  0  0  0  0  0  0  0  0  0  0  0
   -5.8341    3.1342   -0.4004 C   0  0  0  0  0  0  0  0  0  0  0  0
   -6.9137    3.1581   -1.0365 O   0  0  0  0  0  0  0  0  0  0  0  0
   -5.0119    4.2557   -0.3486 O   0  0  0  0  0  0  0  0  0  0  0  0
   -6.8522   -1.5314    0.7770 C   0  0  0  0  0  0  0  0  0  0  0  0
   -6.4756   -2.5826    0.2067 O   0  0  0  0  0  0  0  0  0  0  0  0
   -8.1345   -1.4904    1.2914 O   0  0  0  0  0  0  0  0  0  0  0  0
   -1.9697   -1.2300   -0.8040 C   0  0  0  0  0  0  0  0  0  0  0  0
   -0.6937   -1.4983   -1.2871 C   0  0  0  0  0  0  0  0  0  0  0  0
    5.3144   -1.7921   -0.0430 N   0  0  0  0  0  0  0  0  0  0  0  0
    7.8842    3.7596    0.4941 H   0  0  0  0  0  0  0  0  0  0  0  0
    7.1520    3.6567    2.1373 H   0  0  0  0  0  0  0  0  0  0  0  0
    5.5683    2.6299   -0.6405 H   0  0  0  0  0  0  0  0  0  0  0  0
    3.9060    1.2697   -1.7772 H   0  0  0  0  0  0  0  0  0  0  0  0
    3.3635   -0.9114   -2.6626 H   0  0  0  0  0  0  0  0  0  0  0  0
    5.1840   -1.1173   -2.6443 H   0  0  0  0  0  0  0  0  0  0  0  0
    4.1113   -2.9206   -1.2923 H   0  0  0  0  0  0  0  0  0  0  0  0
    2.8450   -2.2557    0.7514 H   0  0  0  0  0  0  0  0  0  0  0  0
    2.9102   -0.5233    0.2879 H   0  0  0  0  0  0  0  0  0  0  0  0
    1.7969   -1.9556   -1.9782 H   0  0  0  0  0  0  0  0  0  0  0  0
    1.0950   -0.9137    1.4467 H   0  0  0  0  0  0  0  0  0  0  0  0
   -1.2018   -0.4244    2.3400 H   0  0  0  0  0  0  0  0  0  0  0  0
   -4.6350   -1.0328   -0.7527 H   0  0  0  0  0  0  0  0  0  0  0  0
   -5.7957   -0.0622    1.9271 H   0  0  0  0  0  0  0  0  0  0  0  0
   -6.4311    0.5608   -0.9625 H   0  0  0  0  0  0  0  0  0  0  0  0
   -7.4341    1.1481    0.4653 H   0  0  0  0  0  0  0  0  0  0  0  0
   -5.2964    2.1236    1.4087 H   0  0  0  0  0  0  0  0  0  0  0  0
   -4.4164    1.5364   -0.0132 H   0  0  0  0  0  0  0  0  0  0  0  0
   -5.3095    5.0361   -0.9476 H   0  0  0  0  0  0  0  0  0  0  0  0
   -8.9074   -2.0275    0.8736 H   0  0  0  0  0  0  0  0  0  0  0  0
   -2.8239   -1.3308   -1.4784 H   0  0  0  0  0  0  0  0  0  0  0  0
   -0.5568   -1.8060   -2.3292 H   0  0  0  0  0  0  0  0  0  0  0  0
    5.7703   -2.6444    0.3353 H   0  0  0  0  0  0  0  0  0  0  0  0
  1  2  1  0
  2  3  2  0
  3  4  1  0
  4  5  2  0
  4  6  1  0
  6  7  2  0
  7  8  1  0
  7  9  1  0
  9 10  1  0
 10 11  1  0
 11 12  1  0
 12 13  1  0
 13 14  1  0
 14 15  2  0
 15 16  1  0
 16 17  2  0
 17 18  1  0
 18 19  2  0
 18 20  1  0
 20 21  1  0
 21 22  1  0
 22 23  1  0
 23 24  1  0
 24 25  2  0
 24 26  1  0
 21 27  1  0
 27 28  2  0
 27 29  1  0
 17 30  1  0
 30 31  2  0
 11 32  1  0
  8  2  1  0
 31 14  1  0
 32  6  1  0
  1 33  1  0
  1 34  1  0
  8 35  1  0
  9 36  1  0
 10 37  1  0
 10 38  1  0
 11 39  1  6
 12 40  1  0
 12 41  1  0
 13 42  1  0
 15 43  1  0
 16 44  1  0
 20 45  1  0
 21 46  1  1
 22 47  1  0
 22 48  1  0
 23 49  1  0
 23 50  1  0
 26 51  1  0
 29 52  1  0
 30 53  1  0
 31 54  1  0
 32 55  1  0
M  END
$$$$

     RDKit          3D

 55 57  0  0  0  0  0  0  0  0999 V2000
   -9.3766    1.4385   -1.3124 N   0  0  0  0  0  0  0  0  0  0  0  0
   -7.9532    1.3852   -1.2947 C   0  0  0  0  0  0  0  0  0  0  0  0
   -7.2206    2.4386   -1.7130 N   0  0  0  0  0  0  0  0  0  0  0  0
   -5.8617    2.4205   -1.7102 C   0  0  0  0  0  0  0  0  0  0  0  0
   -5.2054    3.4082   -2.1024 O   0  0  0  0  0  0  0  0  0  0  0  0
   -5.1802    1.3051   -1.2719 C   0  0  0  0  0  0  0  0  0  0  0  0
   -5.9320    0.2295   -0.8447 C   0  0  0  0  0  0  0  0  0  0  0  0
   -7.2862    0.2982   -0.8675 N   0  0  0  0  0  0  0  0  0  0  0  0
   -5.2341   -0.9219   -0.3930 N   0  0  0  0  0  0  0  0  0  0  0  0
   -3.8174   -1.0693   -0.5867 C   0  0  0  0  0  0  0  0  0  0  0  0
   -3.0726    0.2592   -0.4960 C   0  0  2  0  0  0  0  0  0  0  0  0
   -3.0327    0.6153    0.9663 C   0  0  0  0  0  0  0  0  0  0  0  0
   -2.3395   -0.4219    1.6873 N   0  0  0  0  0  0  0  0  0  0  0  0
   -0.9546   -0.6130    1.4770 C   0  0  0  0  0  0  0  0  0  0  0  0
   -0.3308   -1.7661    1.9639 C   0  0  0  0  0  0  0  0  0  0  0  0
    1.0235   -1.9468    1.7766 C   0  0  0  0  0  0  0  0  0  0  0  0
    1.8216   -1.0314    1.1192 C   0  0  0  0  0  0  0  0  0  0  0  0
    3.2456   -1.2996    0.9632 C   0  0  0  0  0  0  0  0  0  0  0  0
    3.7324   -2.4251    1.3140 O   0  0  0  0  0  0  0  0  0  0  0  0
    4.1454   -0.3629    0.4327 N   0  0  0  0  0  0  0  0  0  0  0  0
    5.6083   -0.6561    0.2802 C   0  0  1  0  0  0  0  0  0  0  0  0
    5.9114   -0.6284   -1.1653 C   0  0  0  0  0  0  0  0  0  0  0  0
    7.3317   -0.8631   -1.5184 C   0  0  0  0  0  0  0  0  0  0  0  0
    8.1831    0.2540   -1.0620 C   0  0  0  0  0  0  0  0  0  0  0  0
    9.3964    0.1438   -0.7942 O   0  0  0  0  0  0  0  0  0  0  0  0
    7.5735    1.5105   -0.9329 O   0  0  0  0  0  0  0  0  0  0  0  0
    6.2820    0.2413    1.1956 C   0  0  0  0  0  0  0  0  0  0  0  0
    5.7038    1.2539    1.6565 O   0  0  0  0  0  0  0  0  0  0  0  0
    7.5806    0.0145    1.6042 O   0  0  0  0  0  0  0  0  0  0  0  0
    1.2065    0.0970    0.6438 C   0  0  0  0  0  0  0  0  0  0  0  0
   -0.1681    0.2999    0.8235 C   0  0  0  0  0  0  0  0  0  0  0  0
   -3.7526    1.2832   -1.2665 N   0  0  0  0  0  0  0  0  0  0  0  0
   -9.9149    0.6966   -1.7840 H   0  0  0  0  0  0  0  0  0  0  0  0
   -9.9158    2.2083   -0.8615 H   0  0  0  0  0  0  0  0  0  0  0  0
   -7.8388   -0.5340   -0.5368 H   0  0  0  0  0  0  0  0  0  0  0  0
   -5.8153   -1.6584    0.0910 H   0  0  0  0  0  0  0  0  0  0  0  0
   -3.4190   -1.7280    0.2060 H   0  0  0  0  0  0  0  0  0  0  0  0
   -3.5502   -1.5469   -1.5572 H   0  0  0  0  0  0  0  0  0  0  0  0
   -2.0957    0.0804   -0.9604 H   0  0  0  0  0  0  0  0  0  0  0  0
   -2.4662    1.5719    1.1470 H   0  0  0  0  0  0  0  0  0  0  0  0
   -4.0406    0.7481    1.3960 H   0  0  0  0  0  0  0  0  0  0  0  0
   -2.8489   -1.0412    2.3702 H   0  0  0  0  0  0  0  0  0  0  0  0
   -0.9183   -2.5183    2.4901 H   0  0  0  0  0  0  0  0  0  0  0  0
    1.5294   -2.8508    2.1544 H   0  0  0  0  0  0  0  0  0  0  0  0
    3.7953    0.5719    0.1318 H   0  0  0  0  0  0  0  0  0  0  0  0
    5.7043   -1.7174    0.6420 H   0  0  0  0  0  0  0  0  0  0  0  0
    5.2436   -1.4204   -1.6438 H   0  0  0  0  0  0  0  0  0  0  0  0
    5.5555    0.3844   -1.5529 H   0  0  0  0  0  0  0  0  0  0  0  0
    7.6447   -1.8260   -1.0408 H   0  0  0  0  0  0  0  0  0  0  0  0
    7.4027   -0.9401   -2.6323 H   0  0  0  0  0  0  0  0  0  0  0  0
    7.9697    2.2314   -0.3374 H   0  0  0  0  0  0  0  0  0  0  0  0
    7.9568    0.3392    2.4974 H   0  0  0  0  0  0  0  0  0  0  0  0
    1.7818    0.8465    0.1209 H   0  0  0  0  0  0  0  0  0  0  0  0
   -0.5922    1.2306    0.4257 H   0  0  0  0  0  0  0  0  0  0  0  0
   -3.1954    1.9816   -1.8006 H   0  0  0  0  0  0  0  0  0  0  0  0
  1  2  1  0
  2  3  2  0
  3  4  1  0
  4  5  2  0
  4  6  1  0
  6  7  2  0
  7  8  1  0
  7  9  1  0
  9 10  1  0
 10 11  1  0
 11 12  1  0
 12 13  1  0
 13 14  1  0
 14 15  2  0
 15 16  1  0
 16 17  2  0
 17 18  1  0
 18 19  2  0
 18 20  1  0
 20 21  1  0
 21 22  1  0
 22 23  1  0
 23 24  1  0
 24 25  2  0
 24 26  1  0
 21 27  1  0
 27 28  2  0
 27 29  1  0
 17 30  1  0
 30 31  2  0
 11 32  1  0
  8  2  1  0
 31 14  1  0
 32  6  1  0
  1 33  1  0
  1 34  1  0
  8 35  1  0
  9 36  1  0
 10 37  1  0
 10 38  1  0
 11 39  1  6
 12 40  1  0
 12 41  1  0
 13 42  1  0
 15 43  1  0
 16 44  1  0
 20 45  1  0
 21 46  1  1
 22 47  1  0
 22 48  1  0
 23 49  1  0
 23 50  1  0
 26 51  1  0
 29 52  1  0
 30 53  1  0
 31 54  1  0
 32 55  1  0
M  END
$$$$

     RDKit          3D

 55 57  0  0  0  0  0  0  0  0999 V2000
   10.3456    0.5798    0.9104 N   0  0  0  0  0  0  0  0  0  0  0  0
    8.9395    0.3725    0.9075 C   0  0  0  0  0  0  0  0  0  0  0  0
    8.3457   -0.2211    1.9651 N   0  0  0  0  0  0  0  0  0  0  0  0
    7.0220   -0.4450    2.0197 C   0  0  0  0  0  0  0  0  0  0  0  0
    6.4900   -0.9958    3.0070 O   0  0  0  0  0  0  0  0  0  0  0  0
    6.2238   -0.0635    0.9707 C   0  0  0  0  0  0  0  0  0  0  0  0
    6.8202    0.5438   -0.1146 C   0  0  0  0  0  0  0  0  0  0  0  0
    8.1455    0.7414   -0.1135 N   0  0  0  0  0  0  0  0  0  0  0  0
    5.9814    0.9425   -1.2132 N   0  0  0  0  0  0  0  0  0  0  0  0
    4.5479    1.0732   -0.9629 C   0  0  0  0  0  0  0  0  0  0  0  0
    4.1113   -0.2184   -0.2937 C   0  0  2  0  0  0  0  0  0  0  0  0
    2.6510   -0.2178    0.0286 C   0  0  0  0  0  0  0  0  0  0  0  0
    1.8528   -0.0639   -1.1527 N   0  0  0  0  0  0  0  0  0  0  0  0
    0.4211   -0.0322   -1.0927 C   0  0  0  0  0  0  0  0  0  0  0  0
   -0.2191   -0.1520    0.1210 C   0  0  0  0  0  0  0  0  0  0  0  0
   -1.6142   -0.1264    0.2316 C   0  0  0  0  0  0  0  0  0  0  0  0
   -2.3885    0.0222   -0.8951 C   0  0  0  0  0  0  0  0  0  0  0  0
   -3.8546    0.0577   -0.8636 C   0  0  0  0  0  0  0  0  0  0  0  0
   -4.5108    0.2272   -1.9350 O   0  0  0  0  0  0  0  0  0  0  0  0
   -4.6184   -0.0883    0.3168 N   0  0  0  0  0  0  0  0  0  0  0  0
   -6.0901   -0.0463    0.3073 C   0  0  1  0  0  0  0  0  0  0  0  0
   -6.6587   -1.3146    0.8344 C   0  0  0  0  0  0  0  0  0  0  0  0
   -8.1516   -1.3032    0.8320 C   0  0  0  0  0  0  0  0  0  0  0  0
   -8.7720   -1.1310   -0.4990 C   0  0  0  0  0  0  0  0  0  0  0  0
  -10.0218   -0.9870   -0.5545 O   0  0  0  0  0  0  0  0  0  0  0  0
   -8.0944   -1.1151   -1.7026 O   0  0  0  0  0  0  0  0  0  0  0  0
   -6.4872    1.1262    1.0993 C   0  0  0  0  0  0  0  0  0  0  0  0
   -5.6271    1.8357    1.6663 O   0  0  0  0  0  0  0  0  0  0  0  0
   -7.8139    1.4610    1.2256 O   0  0  0  0  0  0  0  0  0  0  0  0
   -1.7372    0.1413   -2.1074 C   0  0  0  0  0  0  0  0  0  0  0  0
   -0.3541    0.1161   -2.2195 C   0  0  0  0  0  0  0  0  0  0  0  0
    4.8347   -0.2739    0.9750 N   0  0  0  0  0  0  0  0  0  0  0  0
   10.8756    0.6384    1.8062 H   0  0  0  0  0  0  0  0  0  0  0  0
   10.8470    0.6728    0.0198 H   0  0  0  0  0  0  0  0  0  0  0  0
    8.5930    1.2025   -0.9407 H   0  0  0  0  0  0  0  0  0  0  0  0
    6.4273    1.1173   -2.1249 H   0  0  0  0  0  0  0  0  0  0  0  0
    4.3738    1.9460   -0.3045 H   0  0  0  0  0  0  0  0  0  0  0  0
    4.0204    1.2443   -1.9258 H   0  0  0  0  0  0  0  0  0  0  0  0
    4.3972   -1.0449   -0.9691 H   0  0  0  0  0  0  0  0  0  0  0  0
    2.4740    0.6053    0.7608 H   0  0  0  0  0  0  0  0  0  0  0  0
    2.4217   -1.1562    0.5694 H   0  0  0  0  0  0  0  0  0  0  0  0
    2.3287    0.0266   -2.0719 H   0  0  0  0  0  0  0  0  0  0  0  0
    0.3931   -0.2690    1.0054 H   0  0  0  0  0  0  0  0  0  0  0  0
   -2.0893   -0.2209    1.1848 H   0  0  0  0  0  0  0  0  0  0  0  0
   -4.1155   -0.2302    1.2163 H   0  0  0  0  0  0  0  0  0  0  0  0
   -6.4597    0.1240   -0.7194 H   0  0  0  0  0  0  0  0  0  0  0  0
   -6.2819   -1.5793    1.8480 H   0  0  0  0  0  0  0  0  0  0  0  0
   -6.3501   -2.1742    0.1688 H   0  0  0  0  0  0  0  0  0  0  0  0
   -8.5747   -0.6232    1.6049 H   0  0  0  0  0  0  0  0  0  0  0  0
   -8.5531   -2.3259    1.1746 H   0  0  0  0  0  0  0  0  0  0  0  0
   -8.3955   -0.4178   -2.3885 H   0  0  0  0  0  0  0  0  0  0  0  0
   -8.1930    2.0178    1.9802 H   0  0  0  0  0  0  0  0  0  0  0  0
   -2.3449    0.2577   -2.9907 H   0  0  0  0  0  0  0  0  0  0  0  0
    0.1422    0.2100   -3.1705 H   0  0  0  0  0  0  0  0  0  0  0  0
    4.3452   -0.4661    1.8873 H   0  0  0  0  0  0  0  0  0  0  0  0
  1  2  1  0
  2  3  2  0
  3  4  1  0
  4  5  2  0
  4  6  1  0
  6  7  2  0
  7  8  1  0
  7  9  1  0
  9 10  1  0
 10 11  1  0
 11 12  1  0
 12 13  1  0
 13 14  1  0
 14 15  2  0
 15 16  1  0
 16 17  2  0
 17 18  1  0
 18 19  2  0
 18 20  1  0
 20 21  1  0
 21 22  1  0
 22 23  1  0
 23 24  1  0
 24 25  2  0
 24 26  1  0
 21 27  1  0
 27 28  2  0
 27 29  1  0
 17 30  1  0
 30 31  2  0
 11 32  1  0
  8  2  1  0
 31 14  1  0
 32  6  1  0
  1 33  1  0
  1 34  1  0
  8 35  1  0
  9 36  1  0
 10 37  1  0
 10 38  1  0
 11 39  1  6
 12 40  1  0
 12 41  1  0
 13 42  1  0
 15 43  1  0
 16 44  1  0
 20 45  1  0
 21 46  1  6
 22 47  1  0
 22 48  1  0
 23 49  1  0
 23 50  1  0
 26 51  1  0
 29 52  1  0
 30 53  1  0
 31 54  1  0
 32 55  1  0
M  END
$$$$

     RDKit          3D

 55 57  0  0  0  0  0  0  0  0999 V2000
    9.6851   -1.5561   -0.0955 N   0  0  0  0  0  0  0  0  0  0  0  0
    8.4477   -0.9606    0.2480 C   0  0  0  0  0  0  0  0  0  0  0  0
    8.3067   -0.1825    1.3529 N   0  0  0  0  0  0  0  0  0  0  0  0
    7.1465    0.3984    1.6944 C   0  0  0  0  0  0  0  0  0  0  0  0
    7.0169    1.1212    2.7221 O   0  0  0  0  0  0  0  0  0  0  0  0
    6.0118    0.2248    0.9126 C   0  0  0  0  0  0  0  0  0  0  0  0
    6.1771   -0.5659   -0.2015 C   0  0  0  0  0  0  0  0  0  0  0  0
    7.3512   -1.1345   -0.5159 N   0  0  0  0  0  0  0  0  0  0  0  0
    5.0034   -0.7185   -1.0139 N   0  0  0  0  0  0  0  0  0  0  0  0
    4.0922    0.4035   -1.0357 C   0  0  0  0  0  0  0  0  0  0  0  0
    3.6450    0.7255    0.3503 C   0  0  2  0  0  0  0  0  0  0  0  0
    2.9538    2.0735    0.4257 C   0  0  0  0  0  0  0  0  0  0  0  0
    1.7895    2.2113   -0.3683 N   0  0  0  0  0  0  0  0  0  0  0  0
    0.5468    1.5572   -0.1387 C   0  0  0  0  0  0  0  0  0  0  0  0
    0.2750    0.8253    1.0089 C   0  0  0  0  0  0  0  0  0  0  0  0
   -0.9412    0.2078    1.2027 C   0  0  0  0  0  0  0  0  0  0  0  0
   -1.9445    0.2869    0.2692 C   0  0  0  0  0  0  0  0  0  0  0  0
   -3.2191   -0.3558    0.5012 C   0  0  0  0  0  0  0  0  0  0  0  0
   -3.4717   -0.8475    1.6541 O   0  0  0  0  0  0  0  0  0  0  0  0
   -4.2428   -0.4884   -0.4712 N   0  0  0  0  0  0  0  0  0  0  0  0
   -5.5134   -1.1585   -0.1235 C   0  0  1  0  0  0  0  0  0  0  0  0
   -6.6276   -0.1802   -0.3823 C   0  0  0  0  0  0  0  0  0  0  0  0
   -7.9942   -0.7092   -0.0396 C   0  0  0  0  0  0  0  0  0  0  0  0
   -9.0138    0.3283   -0.3345 C   0  0  0  0  0  0  0  0  0  0  0  0
   -8.9892    0.8711   -1.4776 O   0  0  0  0  0  0  0  0  0  0  0  0
   -9.9561    0.6795    0.6322 O   0  0  0  0  0  0  0  0  0  0  0  0
   -5.5846   -2.3779   -0.9581 C   0  0  0  0  0  0  0  0  0  0  0  0
   -4.6708   -2.6655   -1.7742 O   0  0  0  0  0  0  0  0  0  0  0  0
   -6.6468   -3.2563   -0.8859 O   0  0  0  0  0  0  0  0  0  0  0  0
   -1.6854    1.0071   -0.8677 C   0  0  0  0  0  0  0  0  0  0  0  0
   -0.4774    1.6311   -1.0800 C   0  0  0  0  0  0  0  0  0  0  0  0
    4.7768    0.8126    1.2380 N   0  0  0  0  0  0  0  0  0  0  0  0
    9.6967   -2.4567   -0.6045 H   0  0  0  0  0  0  0  0  0  0  0  0
   10.5857   -1.1062    0.1531 H   0  0  0  0  0  0  0  0  0  0  0  0
    7.4050   -1.7282   -1.3757 H   0  0  0  0  0  0  0  0  0  0  0  0
    4.8831   -1.6118   -1.5360 H   0  0  0  0  0  0  0  0  0  0  0  0
    3.2596    0.1361   -1.7219 H   0  0  0  0  0  0  0  0  0  0  0  0
    4.5981    1.3278   -1.4337 H   0  0  0  0  0  0  0  0  0  0  0  0
    2.9860   -0.0875    0.7247 H   0  0  0  0  0  0  0  0  0  0  0  0
    2.6431    2.1826    1.5080 H   0  0  0  0  0  0  0  0  0  0  0  0
    3.7096    2.8759    0.2583 H   0  0  0  0  0  0  0  0  0  0  0  0
    1.8335    2.8533   -1.2017 H   0  0  0  0  0  0  0  0  0  0  0  0
    1.0665    0.7617    1.7716 H   0  0  0  0  0  0  0  0  0  0  0  0
   -1.0686   -0.3478    2.1346 H   0  0  0  0  0  0  0  0  0  0  0  0
   -4.0813   -0.1044   -1.4239 H   0  0  0  0  0  0  0  0  0  0  0  0
   -5.5147   -1.4608    0.9289 H   0  0  0  0  0  0  0  0  0  0  0  0
   -6.4152    0.7860    0.1141 H   0  0  0  0  0  0  0  0  0  0  0  0
   -6.6160    0.0525   -1.4834 H   0  0  0  0  0  0  0  0  0  0  0  0
   -8.0104   -0.9182    1.0429 H   0  0  0  0  0  0  0  0  0  0  0  0
   -8.2370   -1.6318   -0.6214 H   0  0  0  0  0  0  0  0  0  0  0  0
  -10.2731    1.6624    0.6567 H   0  0  0  0  0  0  0  0  0  0  0  0
   -6.7120   -4.0207   -1.5375 H   0  0  0  0  0  0  0  0  0  0  0  0
   -2.4292    1.1205   -1.6607 H   0  0  0  0  0  0  0  0  0  0  0  0
   -0.2873    2.1914   -1.9716 H   0  0  0  0  0  0  0  0  0  0  0  0
    4.7309    1.3163    2.1678 H   0  0  0  0  0  0  0  0  0  0  0  0
  1  2  1  0
  2  3  2  0
  3  4  1  0
  4  5  2  0
  4  6  1  0
  6  7  2  0
  7  8  1  0
  7  9  1  0
  9 10  1  0
 10 11  1  0
 11 12  1  0
 12 13  1  0
 13 14  1  0
 14 15  2  0
 15 16  1  0
 16 17  2  0
 17 18  1  0
 18 19  2  0
 18 20  1  0
 20 21  1  0
 21 22  1  0
 22 23  1  0
 23 24  1  0
 24 25  2  0
 24 26  1  0
 21 27  1  0
 27 28  2  0
 27 29  1  0
 17 30  1  0
 30 31  2  0
 11 32  1  0
  8  2  1  0
 31 14  1  0
 32  6  1  0
  1 33  1  0
  1 34  1  0
  8 35  1  0
  9 36  1  0
 10 37  1  0
 10 38  1  0
 11 39  1  1
 12 40  1  0
 12 41  1  0
 13 42  1  0
 15 43  1  0
 16 44  1  0
 20 45  1  0
 21 46  1  1
 22 47  1  0
 22 48  1  0
 23 49  1  0
 23 50  1  0
 26 51  1  0
 29 52  1  0
 30 53  1  0
 31 54  1  0
 32 55  1  0
M  END
$$$$

     RDKit          3D

 55 57  0  0  0  0  0  0  0  0999 V2000
    9.5576   -0.6851    0.2944 N   0  0  0  0  0  0  0  0  0  0  0  0
    8.2915   -0.0851    0.1297 C   0  0  0  0  0  0  0  0  0  0  0  0
    8.1535    0.9989   -0.6909 N   0  0  0  0  0  0  0  0  0  0  0  0
    6.9691    1.5948   -0.8727 C   0  0  0  0  0  0  0  0  0  0  0  0
    6.8378    2.5864   -1.6224 O   0  0  0  0  0  0  0  0  0  0  0  0
    5.8562    1.1066   -0.2177 C   0  0  0  0  0  0  0  0  0  0  0  0
    5.9799    0.0053    0.6199 C   0  0  0  0  0  0  0  0  0  0  0  0
    7.1904   -0.5505    0.7637 N   0  0  0  0  0  0  0  0  0  0  0  0
    4.8554   -0.5280    1.3136 N   0  0  0  0  0  0  0  0  0  0  0  0
    3.6997    0.3354    1.4339 C   0  0  0  0  0  0  0  0  0  0  0  0
    3.4092    0.9205    0.0611 C   0  0  2  0  0  0  0  0  0  0  0  0
    3.2836   -0.2876   -0.8716 C   0  0  0  0  0  0  0  0  0  0  0  0
    2.2083   -1.1421   -0.4309 N   0  0  0  0  0  0  0  0  0  0  0  0
    0.8749   -0.6758   -0.5152 C   0  0  0  0  0  0  0  0  0  0  0  0
   -0.1493   -1.3422    0.1504 C   0  0  0  0  0  0  0  0  0  0  0  0
   -1.4706   -0.9271    0.0801 C   0  0  0  0  0  0  0  0  0  0  0  0
   -1.8175    0.1745   -0.6616 C   0  0  0  0  0  0  0  0  0  0  0  0
   -3.1897    0.6476   -0.7592 C   0  0  0  0  0  0  0  0  0  0  0  0
   -3.5014    1.5830   -1.5704 O   0  0  0  0  0  0  0  0  0  0  0  0
   -4.2225    0.1197    0.0109 N   0  0  0  0  0  0  0  0  0  0  0  0
   -5.6367    0.5765   -0.0597 C   0  0  1  0  0  0  0  0  0  0  0  0
   -6.3756   -0.5854   -0.5996 C   0  0  0  0  0  0  0  0  0  0  0  0
   -7.8366   -0.5203   -0.7636 C   0  0  0  0  0  0  0  0  0  0  0  0
   -8.6564   -0.4681    0.4476 C   0  0  0  0  0  0  0  0  0  0  0  0
   -8.1962   -0.7630    1.5760 O   0  0  0  0  0  0  0  0  0  0  0  0
   -9.9854   -0.0844    0.3753 O   0  0  0  0  0  0  0  0  0  0  0  0
   -5.9953    1.1712    1.1966 C   0  0  0  0  0  0  0  0  0  0  0  0
   -5.2505    1.0555    2.2061 O   0  0  0  0  0  0  0  0  0  0  0  0
   -7.1595    1.9013    1.3599 O   0  0  0  0  0  0  0  0  0  0  0  0
   -0.8262    0.8519   -1.3298 C   0  0  0  0  0  0  0  0  0  0  0  0
    0.5012    0.4296   -1.2555 C   0  0  0  0  0  0  0  0  0  0  0  0
    4.5716    1.6737   -0.3511 N   0  0  0  0  0  0  0  0  0  0  0  0
   10.3124   -0.1868    0.7892 H   0  0  0  0  0  0  0  0  0  0  0  0
    9.7289   -1.6291   -0.0834 H   0  0  0  0  0  0  0  0  0  0  0  0
    7.3153   -1.3901    1.3940 H   0  0  0  0  0  0  0  0  0  0  0  0
    4.8538   -1.4900    1.7189 H   0  0  0  0  0  0  0  0  0  0  0  0
    3.9934    1.1687    2.1101 H   0  0  0  0  0  0  0  0  0  0  0  0
    2.8415   -0.2354    1.8360 H   0  0  0  0  0  0  0  0  0  0  0  0
    2.5133    1.5408    0.0576 H   0  0  0  0  0  0  0  0  0  0  0  0
    4.2492   -0.8031   -0.9375 H   0  0  0  0  0  0  0  0  0  0  0  0
    3.0756    0.1578   -1.8878 H   0  0  0  0  0  0  0  0  0  0  0  0
    2.4121   -2.0908   -0.0553 H   0  0  0  0  0  0  0  0  0  0  0  0
    0.1588   -2.2186    0.7355 H   0  0  0  0  0  0  0  0  0  0  0  0
   -2.2091   -1.5071    0.6309 H   0  0  0  0  0  0  0  0  0  0  0  0
   -4.0340   -0.6445    0.6913 H   0  0  0  0  0  0  0  0  0  0  0  0
   -5.5759    1.3674   -0.8958 H   0  0  0  0  0  0  0  0  0  0  0  0
   -6.0715   -1.5347   -0.0661 H   0  0  0  0  0  0  0  0  0  0  0  0
   -5.9484   -0.7646   -1.6423 H   0  0  0  0  0  0  0  0  0  0  0  0
   -8.0902    0.3186   -1.4781 H   0  0  0  0  0  0  0  0  0  0  0  0
   -8.1426   -1.4413   -1.3535 H   0  0  0  0  0  0  0  0  0  0  0  0
  -10.3643    0.3942    1.2086 H   0  0  0  0  0  0  0  0  0  0  0  0
   -7.6175    2.0075    2.2642 H   0  0  0  0  0  0  0  0  0  0  0  0
   -1.0825    1.7255   -1.9219 H   0  0  0  0  0  0  0  0  0  0  0  0
    1.2238    1.0009   -1.8133 H   0  0  0  0  0  0  0  0  0  0  0  0
    4.4873    2.6336   -0.7484 H   0  0  0  0  0  0  0  0  0  0  0  0
  1  2  1  0
  2  3  2  0
  3  4  1  0
  4  5  2  0
  4  6  1  0
  6  7  2  0
  7  8  1  0
  7  9  1  0
  9 10  1  0
 10 11  1  0
 11 12  1  0
 12 13  1  0
 13 14  1  0
 14 15  2  0
 15 16  1  0
 16 17  2  0
 17 18  1  0
 18 19  2  0
 18 20  1  0
 20 21  1  0
 21 22  1  0
 22 23  1  0
 23 24  1  0
 24 25  2  0
 24 26  1  0
 21 27  1  0
 27 28  2  0
 27 29  1  0
 17 30  1  0
 30 31  2  0
 11 32  1  0
  8  2  1  0
 31 14  1  0
 32  6  1  0
  1 33  1  0
  1 34  1  0
  8 35  1  0
  9 36  1  0
 10 37  1  0
 10 38  1  0
 11 39  1  1
 12 40  1  0
 12 41  1  0
 13 42  1  0
 15 43  1  0
 16 44  1  0
 20 45  1  0
 21 46  1  6
 22 47  1  0
 22 48  1  0
 23 49  1  0
 23 50  1  0
 26 51  1  0
 29 52  1  0
 30 53  1  0
 31 54  1  0
 32 55  1  0
M  END
$$$$

     RDKit          3D

 55 57  0  0  0  0  0  0  0  0999 V2000
    9.2097   -0.7627   -0.5636 N   0  0  0  0  0  0  0  0  0  0  0  0
    7.9631   -0.1833   -0.2546 C   0  0  0  0  0  0  0  0  0  0  0  0
    7.7369    1.1121   -0.5111 N   0  0  0  0  0  0  0  0  0  0  0  0
    6.5516    1.7003   -0.2418 C   0  0  0  0  0  0  0  0  0  0  0  0
    6.3142    2.9287   -0.4774 O   0  0  0  0  0  0  0  0  0  0  0  0
    5.5614    0.9507    0.3095 C   0  0  0  0  0  0  0  0  0  0  0  0
    5.7796   -0.3822    0.5840 C   0  0  0  0  0  0  0  0  0  0  0  0
    6.9443   -0.9214    0.3036 N   0  0  0  0  0  0  0  0  0  0  0  0
    4.6975   -1.0966    1.1770 N   0  0  0  0  0  0  0  0  0  0  0  0
    3.3397   -0.8069    0.8272 C   0  0  0  0  0  0  0  0  0  0  0  0
    3.0796    0.6163    0.4065 C   0  0  2  0  0  0  0  0  0  0  0  0
    2.9149    0.6420   -1.1444 C   0  0  0  0  0  0  0  0  0  0  0  0
    1.8334   -0.2687   -1.4777 N   0  0  0  0  0  0  0  0  0  0  0  0
    0.6052   -0.0702   -0.8166 C   0  0  0  0  0  0  0  0  0  0  0  0
    0.1687   -1.0641    0.0233 C   0  0  0  0  0  0  0  0  0  0  0  0
   -1.0655   -0.8964    0.6554 C   0  0  0  0  0  0  0  0  0  0  0  0
   -1.8339    0.2552    0.4300 C   0  0  0  0  0  0  0  0  0  0  0  0
   -3.1783    0.3766    0.9443 C   0  0  0  0  0  0  0  0  0  0  0  0
   -3.4321    1.0039    1.9882 O   0  0  0  0  0  0  0  0  0  0  0  0
   -4.1673   -0.2669    0.1627 N   0  0  0  0  0  0  0  0  0  0  0  0
   -5.5759   -0.2942    0.3914 C   0  0  1  0  0  0  0  0  0  0  0  0
   -6.3135   -0.0435   -0.8991 C   0  0  0  0  0  0  0  0  0  0  0  0
   -7.7919    0.0872   -0.4781 C   0  0  0  0  0  0  0  0  0  0  0  0
   -7.8024    1.3453    0.3819 C   0  0  0  0  0  0  0  0  0  0  0  0
   -7.8324    1.3267    1.6140 O   0  0  0  0  0  0  0  0  0  0  0  0
   -7.7759    2.5479   -0.2892 O   0  0  0  0  0  0  0  0  0  0  0  0
   -5.8071   -1.7803    0.6620 C   0  0  0  0  0  0  0  0  0  0  0  0
   -6.0534   -2.1397    1.8317 O   0  0  0  0  0  0  0  0  0  0  0  0
   -5.7246   -2.7587   -0.3453 O   0  0  0  0  0  0  0  0  0  0  0  0
   -1.3563    1.2274   -0.4127 C   0  0  0  0  0  0  0  0  0  0  0  0
   -0.1370    1.0794   -1.0460 C   0  0  0  0  0  0  0  0  0  0  0  0
    4.2643    1.4537    0.5987 N   0  0  0  0  0  0  0  0  0  0  0  0
    9.8151   -1.1402    0.1964 H   0  0  0  0  0  0  0  0  0  0  0  0
    9.5801   -0.8527   -1.5535 H   0  0  0  0  0  0  0  0  0  0  0  0
    7.0925   -1.9303    0.5097 H   0  0  0  0  0  0  0  0  0  0  0  0
    4.9459   -1.8423    1.8665 H   0  0  0  0  0  0  0  0  0  0  0  0
    2.6390   -1.1471    1.6077 H   0  0  0  0  0  0  0  0  0  0  0  0
    3.1294   -1.4612   -0.0827 H   0  0  0  0  0  0  0  0  0  0  0  0
    2.1875    0.9963    0.8865 H   0  0  0  0  0  0  0  0  0  0  0  0
    3.8573    0.4465   -1.6422 H   0  0  0  0  0  0  0  0  0  0  0  0
    2.5511    1.6862   -1.3472 H   0  0  0  0  0  0  0  0  0  0  0  0
    1.9724   -1.0307   -2.1915 H   0  0  0  0  0  0  0  0  0  0  0  0
    0.7987   -1.9317    0.1526 H   0  0  0  0  0  0  0  0  0  0  0  0
   -1.4488   -1.6413    1.3188 H   0  0  0  0  0  0  0  0  0  0  0  0
   -3.8547   -0.7955   -0.7229 H   0  0  0  0  0  0  0  0  0  0  0  0
   -5.9001    0.2341    1.2568 H   0  0  0  0  0  0  0  0  0  0  0  0
   -6.0397    0.8886   -1.4214 H   0  0  0  0  0  0  0  0  0  0  0  0
   -6.2071   -0.8776   -1.6422 H   0  0  0  0  0  0  0  0  0  0  0  0
   -7.9580   -0.7692    0.2418 H   0  0  0  0  0  0  0  0  0  0  0  0
   -8.4340    0.1510   -1.3151 H   0  0  0  0  0  0  0  0  0  0  0  0
   -7.1277    3.2759    0.0382 H   0  0  0  0  0  0  0  0  0  0  0  0
   -5.1286   -3.5777   -0.1849 H   0  0  0  0  0  0  0  0  0  0  0  0
   -1.9655    2.1116   -0.5700 H   0  0  0  0  0  0  0  0  0  0  0  0
    0.2195    1.8685   -1.6972 H   0  0  0  0  0  0  0  0  0  0  0  0
    4.1592    2.4213    0.9117 H   0  0  0  0  0  0  0  0  0  0  0  0
  1  2  1  0
  2  3  2  0
  3  4  1  0
  4  5  2  0
  4  6  1  0
  6  7  2  0
  7  8  1  0
  7  9  1  0
  9 10  1  0
 10 11  1  0
 11 12  1  0
 12 13  1  0
 13 14  1  0
 14 15  2  0
 15 16  1  0
 16 17  2  0
 17 18  1  0
 18 19  2  0
 18 20  1  0
 20 21  1  0
 21 22  1  0
 22 23  1  0
 23 24  1  0
 24 25  2  0
 24 26  1  0
 21 27  1  0
 27 28  2  0
 27 29  1  0
 17 30  1  0
 30 31  2  0
 11 32  1  0
  8  2  1  0
 31 14  1  0
 32  6  1  0
  1 33  1  0
  1 34  1  0
  8 35  1  0
  9 36  1  0
 10 37  1  0
 10 38  1  0
 11 39  1  1
 12 40  1  0
 12 41  1  0
 13 42  1  0
 15 43  1  0
 16 44  1  0
 20 45  1  0
 21 46  1  1
 22 47  1  0
 22 48  1  0
 23 49  1  0
 23 50  1  0
 26 51  1  0
 29 52  1  0
 30 53  1  0
 31 54  1  0
 32 55  1  0
M  END
$$$$

     RDKit          3D

 55 57  0  0  0  0  0  0  0  0999 V2000
    9.7572    1.8106   -0.4469 N   0  0  0  0  0  0  0  0  0  0  0  0
    8.4752    1.2557   -0.6678 C   0  0  0  0  0  0  0  0  0  0  0  0
    8.3431    0.2769   -1.5938 N   0  0  0  0  0  0  0  0  0  0  0  0
    7.1493   -0.2875   -1.8463 C   0  0  0  0  0  0  0  0  0  0  0  0
    6.9998   -1.2013   -2.7040 O   0  0  0  0  0  0  0  0  0  0  0  0
    6.0292    0.1284   -1.1565 C   0  0  0  0  0  0  0  0  0  0  0  0
    6.1909    1.1254   -0.2200 C   0  0  0  0  0  0  0  0  0  0  0  0
    7.4032    1.6738    0.0120 N   0  0  0  0  0  0  0  0  0  0  0  0
    5.0284    1.5493    0.4926 N   0  0  0  0  0  0  0  0  0  0  0  0
    3.9718    0.5943    0.7628 C   0  0  0  0  0  0  0  0  0  0  0  0
    3.6063   -0.2215   -0.4731 C   0  0  2  0  0  0  0  0  0  0  0  0
    3.1653   -1.6189   -0.0667 C   0  0  0  0  0  0  0  0  0  0  0  0
    2.0305   -1.6540    0.7884 N   0  0  0  0  0  0  0  0  0  0  0  0
    0.7036   -1.2539    0.4360 C   0  0  0  0  0  0  0  0  0  0  0  0
    0.3399   -0.9524   -0.8557 C   0  0  0  0  0  0  0  0  0  0  0  0
   -0.9613   -0.5536   -1.1725 C   0  0  0  0  0  0  0  0  0  0  0  0
   -1.9337   -0.4468   -0.2011 C   0  0  0  0  0  0  0  0  0  0  0  0
   -3.2951   -0.0252   -0.5679 C   0  0  0  0  0  0  0  0  0  0  0  0
   -3.6026    0.2231   -1.7630 O   0  0  0  0  0  0  0  0  0  0  0  0
   -4.3315    0.1260    0.3876 N   0  0  0  0  0  0  0  0  0  0  0  0
   -5.6774    0.5506   -0.0334 C   0  0  1  0  0  0  0  0  0  0  0  0
   -6.7008   -0.4397    0.4021 C   0  0  0  0  0  0  0  0  0  0  0  0
   -8.0996   -0.1002    0.0126 C   0  0  0  0  0  0  0  0  0  0  0  0
   -9.0081   -1.1787    0.4835 C   0  0  0  0  0  0  0  0  0  0  0  0
  -10.2264   -1.1088    0.2711 O   0  0  0  0  0  0  0  0  0  0  0  0
   -8.4835   -2.2584    1.1590 O   0  0  0  0  0  0  0  0  0  0  0  0
   -5.9137    1.8560    0.5876 C   0  0  0  0  0  0  0  0  0  0  0  0
   -5.0666    2.3621    1.3550 O   0  0  0  0  0  0  0  0  0  0  0  0
   -7.0710    2.5576    0.3400 O   0  0  0  0  0  0  0  0  0  0  0  0
   -1.5719   -0.7480    1.0899 C   0  0  0  0  0  0  0  0  0  0  0  0
   -0.2766   -1.1442    1.4010 C   0  0  0  0  0  0  0  0  0  0  0  0
    4.7373   -0.4048   -1.3574 N   0  0  0  0  0  0  0  0  0  0  0  0
    9.9375    2.4805    0.3365 H   0  0  0  0  0  0  0  0  0  0  0  0
   10.5643    1.5739   -1.0527 H   0  0  0  0  0  0  0  0  0  0  0  0
    7.4667    2.4347    0.7408 H   0  0  0  0  0  0  0  0  0  0  0  0
    4.9865    2.5589    0.7998 H   0  0  0  0  0  0  0  0  0  0  0  0
    3.0891    1.1864    1.0809 H   0  0  0  0  0  0  0  0  0  0  0  0
    4.2459   -0.0836    1.6022 H   0  0  0  0  0  0  0  0  0  0  0  0
    2.8568    0.3576   -1.0019 H   0  0  0  0  0  0  0  0  0  0  0  0
    4.0336   -2.0681    0.4526 H   0  0  0  0  0  0  0  0  0  0  0  0
    3.0327   -2.2622   -0.9862 H   0  0  0  0  0  0  0  0  0  0  0  0
    2.1724   -2.0101    1.7863 H   0  0  0  0  0  0  0  0  0  0  0  0
    1.0706   -1.0330   -1.6366 H   0  0  0  0  0  0  0  0  0  0  0  0
   -1.2227   -0.3208   -2.2017 H   0  0  0  0  0  0  0  0  0  0  0  0
   -4.1794   -0.0543    1.3982 H   0  0  0  0  0  0  0  0  0  0  0  0
   -5.6991    0.7021   -1.1389 H   0  0  0  0  0  0  0  0  0  0  0  0
   -6.6843   -0.4322    1.5344 H   0  0  0  0  0  0  0  0  0  0  0  0
   -6.4775   -1.4611    0.0226 H   0  0  0  0  0  0  0  0  0  0  0  0
   -8.2156    0.0855   -1.0771 H   0  0  0  0  0  0  0  0  0  0  0  0
   -8.4917    0.8266    0.5180 H   0  0  0  0  0  0  0  0  0  0  0  0
   -8.9786   -3.1561    1.2500 H   0  0  0  0  0  0  0  0  0  0  0  0
   -7.4701    3.2124    1.0281 H   0  0  0  0  0  0  0  0  0  0  0  0
   -2.3169   -0.6707    1.8614 H   0  0  0  0  0  0  0  0  0  0  0  0
   -0.0031   -1.3805    2.4323 H   0  0  0  0  0  0  0  0  0  0  0  0
    4.5717   -0.9779   -2.2063 H   0  0  0  0  0  0  0  0  0  0  0  0
  1  2  1  0
  2  3  2  0
  3  4  1  0
  4  5  2  0
  4  6  1  0
  6  7  2  0
  7  8  1  0
  7  9  1  0
  9 10  1  0
 10 11  1  0
 11 12  1  0
 12 13  1  0
 13 14  1  0
 14 15  2  0
 15 16  1  0
 16 17  2  0
 17 18  1  0
 18 19  2  0
 18 20  1  0
 20 21  1  0
 21 22  1  0
 22 23  1  0
 23 24  1  0
 24 25  2  0
 24 26  1  0
 21 27  1  0
 27 28  2  0
 27 29  1  0
 17 30  1  0
 30 31  2  0
 11 32  1  0
  8  2  1  0
 31 14  1  0
 32  6  1  0
  1 33  1  0
  1 34  1  0
  8 35  1  0
  9 36  1  0
 10 37  1  0
 10 38  1  0
 11 39  1  6
 12 40  1  0
 12 41  1  0
 13 42  1  0
 15 43  1  0
 16 44  1  0
 20 45  1  0
 21 46  1  6
 22 47  1  0
 22 48  1  0
 23 49  1  0
 23 50  1  0
 26 51  1  0
 29 52  1  0
 30 53  1  0
 31 54  1  0
 32 55  1  0
M  END
$$$$

     RDKit          3D

 55 57  0  0  0  0  0  0  0  0999 V2000
    9.5475   -0.5001    0.0639 N   0  0  0  0  0  0  0  0  0  0  0  0
    8.2078    0.0169    0.0896 C   0  0  0  0  0  0  0  0  0  0  0  0
    7.9944    1.2797   -0.3433 N   0  0  0  0  0  0  0  0  0  0  0  0
    6.7462    1.7588   -0.3229 C   0  0  0  0  0  0  0  0  0  0  0  0
    6.4407    2.9362   -0.7094 O   0  0  0  0  0  0  0  0  0  0  0  0
    5.7067    0.9486    0.1400 C   0  0  0  0  0  0  0  0  0  0  0  0
    5.9657   -0.3247    0.5690 C   0  0  0  0  0  0  0  0  0  0  0  0
    7.2501   -0.7935    0.5398 N   0  0  0  0  0  0  0  0  0  0  0  0
    4.9163   -1.1430    1.0372 N   0  0  0  0  0  0  0  0  0  0  0  0
    3.6033   -0.6032    1.2546 C   0  0  0  0  0  0  0  0  0  0  0  0
    3.2868    0.5063    0.2644 C   0  0  2  0  0  0  0  0  0  0  0  0
    2.9766   -0.0780   -1.1038 C   0  0  0  0  0  0  0  0  0  0  0  0
    1.8421   -0.9551   -1.0649 N   0  0  0  0  0  0  0  0  0  0  0  0
    0.5161   -0.5000   -0.8397 C   0  0  0  0  0  0  0  0  0  0  0  0
   -0.4932   -1.3988   -0.5420 C   0  0  0  0  0  0  0  0  0  0  0  0
   -1.7927   -0.9806   -0.3384 C   0  0  0  0  0  0  0  0  0  0  0  0
   -2.1561    0.3491   -0.4196 C   0  0  0  0  0  0  0  0  0  0  0  0
   -3.5203    0.8214   -0.1991 C   0  0  0  0  0  0  0  0  0  0  0  0
   -3.8866    1.9182   -0.6984 O   0  0  0  0  0  0  0  0  0  0  0  0
   -4.4650    0.0897    0.5642 N   0  0  0  0  0  0  0  0  0  0  0  0
   -5.8330    0.5191    0.8078 C   0  0  1  0  0  0  0  0  0  0  0  0
   -6.8387   -0.5404    0.5557 C   0  0  0  0  0  0  0  0  0  0  0  0
   -6.8530   -1.0712   -0.8496 C   0  0  0  0  0  0  0  0  0  0  0  0
   -7.1787   -0.0409   -1.8419 C   0  0  0  0  0  0  0  0  0  0  0  0
   -7.1531   -0.2915   -3.0905 O   0  0  0  0  0  0  0  0  0  0  0  0
   -7.5356    1.2618   -1.5220 O   0  0  0  0  0  0  0  0  0  0  0  0
   -5.9638    1.0362    2.2200 C   0  0  0  0  0  0  0  0  0  0  0  0
   -4.9512    1.0339    2.9324 O   0  0  0  0  0  0  0  0  0  0  0  0
   -7.1681    1.4894    2.6833 O   0  0  0  0  0  0  0  0  0  0  0  0
   -1.1439    1.2404   -0.7169 C   0  0  0  0  0  0  0  0  0  0  0  0
    0.1694    0.8360   -0.9248 C   0  0  0  0  0  0  0  0  0  0  0  0
    4.3778    1.4387    0.1697 N   0  0  0  0  0  0  0  0  0  0  0  0
   10.1088   -0.3978    0.9291 H   0  0  0  0  0  0  0  0  0  0  0  0
    9.8833   -0.9390   -0.7915 H   0  0  0  0  0  0  0  0  0  0  0  0
    7.4004   -1.7687    0.8762 H   0  0  0  0  0  0  0  0  0  0  0  0
    5.0996   -2.1366    1.2238 H   0  0  0  0  0  0  0  0  0  0  0  0
    2.8744   -1.4550    1.1225 H   0  0  0  0  0  0  0  0  0  0  0  0
    3.4471   -0.2444    2.2983 H   0  0  0  0  0  0  0  0  0  0  0  0
    2.3815    1.0164    0.6277 H   0  0  0  0  0  0  0  0  0  0  0  0
    3.8713   -0.6212   -1.5016 H   0  0  0  0  0  0  0  0  0  0  0  0
    2.7539    0.7227   -1.8398 H   0  0  0  0  0  0  0  0  0  0  0  0
    1.9843   -1.9780   -1.2054 H   0  0  0  0  0  0  0  0  0  0  0  0
   -0.2118   -2.4586   -0.4758 H   0  0  0  0  0  0  0  0  0  0  0  0
   -2.5265   -1.7237   -0.1132 H   0  0  0  0  0  0  0  0  0  0  0  0
   -4.1029   -0.8276    0.9646 H   0  0  0  0  0  0  0  0  0  0  0  0
   -6.0221    1.4059    0.1819 H   0  0  0  0  0  0  0  0  0  0  0  0
   -7.8541   -0.0627    0.7038 H   0  0  0  0  0  0  0  0  0  0  0  0
   -6.8278   -1.3558    1.3103 H   0  0  0  0  0  0  0  0  0  0  0  0
   -5.8238   -1.4438   -1.0629 H   0  0  0  0  0  0  0  0  0  0  0  0
   -7.5542   -1.9350   -0.9410 H   0  0  0  0  0  0  0  0  0  0  0  0
   -8.0209    1.8679   -2.1880 H   0  0  0  0  0  0  0  0  0  0  0  0
   -7.2127    2.2516    3.3472 H   0  0  0  0  0  0  0  0  0  0  0  0
   -1.3849    2.2933   -0.7890 H   0  0  0  0  0  0  0  0  0  0  0  0
    0.9487    1.5749   -1.1672 H   0  0  0  0  0  0  0  0  0  0  0  0
    4.1738    2.4480    0.1257 H   0  0  0  0  0  0  0  0  0  0  0  0
  1  2  1  0
  2  3  2  0
  3  4  1  0
  4  5  2  0
  4  6  1  0
  6  7  2  0
  7  8  1  0
  7  9  1  0
  9 10  1  0
 10 11  1  0
 11 12  1  0
 12 13  1  0
 13 14  1  0
 14 15  2  0
 15 16  1  0
 16 17  2  0
 17 18  1  0
 18 19  2  0
 18 20  1  0
 20 21  1  0
 21 22  1  0
 22 23  1  0
 23 24  1  0
 24 25  2  0
 24 26  1  0
 21 27  1  0
 27 28  2  0
 27 29  1  0
 17 30  1  0
 30 31  2  0
 11 32  1  0
  8  2  1  0
 31 14  1  0
 32  6  1  0
  1 33  1  0
  1 34  1  0
  8 35  1  0
  9 36  1  0
 10 37  1  0
 10 38  1  0
 11 39  1  1
 12 40  1  0
 12 41  1  0
 13 42  1  0
 15 43  1  0
 16 44  1  0
 20 45  1  0
 21 46  1  6
 22 47  1  0
 22 48  1  0
 23 49  1  0
 23 50  1  0
 26 51  1  0
 29 52  1  0
 30 53  1  0
 31 54  1  0
 32 55  1  0
M  END
$$$$

     RDKit          3D

 55 57  0  0  0  0  0  0  0  0999 V2000
   10.0401    1.5301   -1.3084 N   0  0  0  0  0  0  0  0  0  0  0  0
    8.8169    1.0442   -0.7912 C   0  0  0  0  0  0  0  0  0  0  0  0
    8.8004   -0.0271    0.0580 N   0  0  0  0  0  0  0  0  0  0  0  0
    7.6561   -0.5140    0.5674 C   0  0  0  0  0  0  0  0  0  0  0  0
    7.6571   -1.4978    1.3455 O   0  0  0  0  0  0  0  0  0  0  0  0
    6.4669    0.0639    0.2393 C   0  0  0  0  0  0  0  0  0  0  0  0
    6.4548    1.1461   -0.6154 C   0  0  0  0  0  0  0  0  0  0  0  0
    7.6251    1.5861   -1.0905 N   0  0  0  0  0  0  0  0  0  0  0  0
    5.2083    1.7740   -0.9768 N   0  0  0  0  0  0  0  0  0  0  0  0
    4.0627    1.4593   -0.1578 C   0  0  0  0  0  0  0  0  0  0  0  0
    4.0335   -0.0465    0.0023 C   0  0  2  0  0  0  0  0  0  0  0  0
    2.7700   -0.5356    0.6183 C   0  0  0  0  0  0  0  0  0  0  0  0
    1.6475   -0.1613   -0.2128 N   0  0  0  0  0  0  0  0  0  0  0  0
    0.3050   -0.4937    0.1320 C   0  0  0  0  0  0  0  0  0  0  0  0
   -0.7083   -0.1044   -0.7071 C   0  0  0  0  0  0  0  0  0  0  0  0
   -2.0395   -0.3863   -0.4472 C   0  0  0  0  0  0  0  0  0  0  0  0
   -2.3705   -1.0785    0.6856 C   0  0  0  0  0  0  0  0  0  0  0  0
   -3.7382   -1.4149    1.0331 C   0  0  0  0  0  0  0  0  0  0  0  0
   -3.9813   -2.0542    2.0837 O   0  0  0  0  0  0  0  0  0  0  0  0
   -4.8285   -1.0405    0.2137 N   0  0  0  0  0  0  0  0  0  0  0  0
   -6.1915   -1.3956    0.5941 C   0  0  1  0  0  0  0  0  0  0  0  0
   -6.9993   -0.1404    0.8260 C   0  0  0  0  0  0  0  0  0  0  0  0
   -7.0831    0.7318   -0.3811 C   0  0  0  0  0  0  0  0  0  0  0  0
   -7.8875    1.9305   -0.0648 C   0  0  0  0  0  0  0  0  0  0  0  0
   -8.3664    2.0653    1.0844 O   0  0  0  0  0  0  0  0  0  0  0  0
   -8.1395    2.9264   -0.9950 O   0  0  0  0  0  0  0  0  0  0  0  0
   -6.7574   -2.2644   -0.4483 C   0  0  0  0  0  0  0  0  0  0  0  0
   -6.0618   -2.5662   -1.4462 O   0  0  0  0  0  0  0  0  0  0  0  0
   -8.0456   -2.7769   -0.3831 O   0  0  0  0  0  0  0  0  0  0  0  0
   -1.3341   -1.4712    1.5345 C   0  0  0  0  0  0  0  0  0  0  0  0
   -0.0048   -1.1903    1.2761 C   0  0  0  0  0  0  0  0  0  0  0  0
    5.2126   -0.4125    0.7522 N   0  0  0  0  0  0  0  0  0  0  0  0
   10.3308    1.3072   -2.2711 H   0  0  0  0  0  0  0  0  0  0  0  0
   10.6446    2.1137   -0.7118 H   0  0  0  0  0  0  0  0  0  0  0  0
    7.6239    2.4091   -1.7414 H   0  0  0  0  0  0  0  0  0  0  0  0
    5.2233    2.4029   -1.7940 H   0  0  0  0  0  0  0  0  0  0  0  0
    4.2850    1.8620    0.8703 H   0  0  0  0  0  0  0  0  0  0  0  0
    3.1228    1.8580   -0.5531 H   0  0  0  0  0  0  0  0  0  0  0  0
    4.0905   -0.4631   -1.0355 H   0  0  0  0  0  0  0  0  0  0  0  0
    2.7935   -1.6342    0.6583 H   0  0  0  0  0  0  0  0  0  0  0  0
    2.6543   -0.1704    1.6641 H   0  0  0  0  0  0  0  0  0  0  0  0
    1.8445    0.3713   -1.0954 H   0  0  0  0  0  0  0  0  0  0  0  0
   -0.5166    0.4535   -1.6327 H   0  0  0  0  0  0  0  0  0  0  0  0
   -2.8067   -0.0549   -1.1456 H   0  0  0  0  0  0  0  0  0  0  0  0
   -4.6978   -0.5135   -0.6638 H   0  0  0  0  0  0  0  0  0  0  0  0
   -6.1993   -1.9585    1.5514 H   0  0  0  0  0  0  0  0  0  0  0  0
   -6.4520    0.4372    1.6163 H   0  0  0  0  0  0  0  0  0  0  0  0
   -7.9956   -0.3382    1.2167 H   0  0  0  0  0  0  0  0  0  0  0  0
   -6.0927    1.0673   -0.7506 H   0  0  0  0  0  0  0  0  0  0  0  0
   -7.5768    0.1807   -1.2346 H   0  0  0  0  0  0  0  0  0  0  0  0
   -8.4104    3.8396   -0.6486 H   0  0  0  0  0  0  0  0  0  0  0  0
   -8.4468   -3.3346   -1.1470 H   0  0  0  0  0  0  0  0  0  0  0  0
   -1.6395   -2.0197    2.4248 H   0  0  0  0  0  0  0  0  0  0  0  0
    0.7791   -1.5211    1.9761 H   0  0  0  0  0  0  0  0  0  0  0  0
    5.2220   -0.9794    1.6118 H   0  0  0  0  0  0  0  0  0  0  0  0
  1  2  1  0
  2  3  2  0
  3  4  1  0
  4  5  2  0
  4  6  1  0
  6  7  2  0
  7  8  1  0
  7  9  1  0
  9 10  1  0
 10 11  1  0
 11 12  1  0
 12 13  1  0
 13 14  1  0
 14 15  2  0
 15 16  1  0
 16 17  2  0
 17 18  1  0
 18 19  2  0
 18 20  1  0
 20 21  1  0
 21 22  1  0
 22 23  1  0
 23 24  1  0
 24 25  2  0
 24 26  1  0
 21 27  1  0
 27 28  2  0
 27 29  1  0
 17 30  1  0
 30 31  2  0
 11 32  1  0
  8  2  1  0
 31 14  1  0
 32  6  1  0
  1 33  1  0
  1 34  1  0
  8 35  1  0
  9 36  1  0
 10 37  1  0
 10 38  1  0
 11 39  1  6
 12 40  1  0
 12 41  1  0
 13 42  1  0
 15 43  1  0
 16 44  1  0
 20 45  1  0
 21 46  1  1
 22 47  1  0
 22 48  1  0
 23 49  1  0
 23 50  1  0
 26 51  1  0
 29 52  1  0
 30 53  1  0
 31 54  1  0
 32 55  1  0
M  END
$$$$

     RDKit          3D

 55 57  0  0  0  0  0  0  0  0999 V2000
    9.9414    0.6407   -0.6916 N   0  0  0  0  0  0  0  0  0  0  0  0
    8.5527    0.2957   -0.7227 C   0  0  0  0  0  0  0  0  0  0  0  0
    8.1474   -0.8358   -1.3348 N   0  0  0  0  0  0  0  0  0  0  0  0
    6.8404   -1.1468   -1.3804 C   0  0  0  0  0  0  0  0  0  0  0  0
    6.4205   -2.2002   -1.9507 O   0  0  0  0  0  0  0  0  0  0  0  0
    5.9257   -0.2947   -0.7908 C   0  0  0  0  0  0  0  0  0  0  0  0
    6.3561    0.8508   -0.1628 C   0  0  0  0  0  0  0  0  0  0  0  0
    7.6889    1.1379   -0.1338 N   0  0  0  0  0  0  0  0  0  0  0  0
    5.4202    1.7314    0.4470 N   0  0  0  0  0  0  0  0  0  0  0  0
    4.1226    1.1396    0.7346 C   0  0  0  0  0  0  0  0  0  0  0  0
    3.6768    0.5669   -0.6065 C   0  0  2  0  0  0  0  0  0  0  0  0
    2.1950    0.2988   -0.6262 C   0  0  0  0  0  0  0  0  0  0  0  0
    1.7764   -0.6399    0.3535 N   0  0  0  0  0  0  0  0  0  0  0  0
    0.4011   -0.8241    0.6645 C   0  0  0  0  0  0  0  0  0  0  0  0
   -0.3003    0.2793    1.1896 C   0  0  0  0  0  0  0  0  0  0  0  0
   -1.6073    0.1562    1.4222 C   0  0  0  0  0  0  0  0  0  0  0  0
   -2.3538   -1.0104    1.1744 C   0  0  0  0  0  0  0  0  0  0  0  0
   -3.7904   -0.7684    1.3411 C   0  0  0  0  0  0  0  0  0  0  0  0
   -4.2012   -0.3497    2.4294 O   0  0  0  0  0  0  0  0  0  0  0  0
   -4.6640   -0.9834    0.2739 N   0  0  0  0  0  0  0  0  0  0  0  0
   -6.0719   -0.6115    0.1971 C   0  0  1  0  0  0  0  0  0  0  0  0
   -6.1418    0.0983   -1.1072 C   0  0  0  0  0  0  0  0  0  0  0  0
   -7.3769    0.7908   -1.5141 C   0  0  0  0  0  0  0  0  0  0  0  0
   -7.6085    1.8962   -0.5130 C   0  0  0  0  0  0  0  0  0  0  0  0
   -8.6928    2.1180    0.0312 O   0  0  0  0  0  0  0  0  0  0  0  0
   -6.4736    2.6606   -0.2397 O   0  0  0  0  0  0  0  0  0  0  0  0
   -7.0578   -1.5636    0.6079 C   0  0  0  0  0  0  0  0  0  0  0  0
   -7.6791   -1.4913    1.7297 O   0  0  0  0  0  0  0  0  0  0  0  0
   -7.4102   -2.6730   -0.1799 O   0  0  0  0  0  0  0  0  0  0  0  0
   -1.6698   -2.0460    0.6830 C   0  0  0  0  0  0  0  0  0  0  0  0
   -0.3079   -1.9966    0.4179 C   0  0  0  0  0  0  0  0  0  0  0  0
    4.5067   -0.5884   -0.8070 N   0  0  0  0  0  0  0  0  0  0  0  0
   10.5425    0.2887    0.0405 H   0  0  0  0  0  0  0  0  0  0  0  0
   10.2878    1.2533   -1.4831 H   0  0  0  0  0  0  0  0  0  0  0  0
    7.9710    2.0376    0.3645 H   0  0  0  0  0  0  0  0  0  0  0  0
    5.6912    2.7076    0.6590 H   0  0  0  0  0  0  0  0  0  0  0  0
    3.3853    1.8395    1.1616 H   0  0  0  0  0  0  0  0  0  0  0  0
    4.3312    0.2744    1.3982 H   0  0  0  0  0  0  0  0  0  0  0  0
    3.9361    1.3150   -1.3680 H   0  0  0  0  0  0  0  0  0  0  0  0
    1.9603   -0.0071   -1.6843 H   0  0  0  0  0  0  0  0  0  0  0  0
    1.7071    1.2738   -0.5086 H   0  0  0  0  0  0  0  0  0  0  0  0
    2.4379   -1.2344    0.8723 H   0  0  0  0  0  0  0  0  0  0  0  0
    0.2544    1.2180    1.4026 H   0  0  0  0  0  0  0  0  0  0  0  0
   -2.1378    1.0367    1.8400 H   0  0  0  0  0  0  0  0  0  0  0  0
   -4.2986   -1.4617   -0.5890 H   0  0  0  0  0  0  0  0  0  0  0  0
   -6.2024    0.2621    0.9908 H   0  0  0  0  0  0  0  0  0  0  0  0
   -5.7882   -0.6258   -1.9042 H   0  0  0  0  0  0  0  0  0  0  0  0
   -5.3204    0.8950   -1.0795 H   0  0  0  0  0  0  0  0  0  0  0  0
   -8.2513    0.2186   -1.7601 H   0  0  0  0  0  0  0  0  0  0  0  0
   -7.1170    1.3496   -2.4860 H   0  0  0  0  0  0  0  0  0  0  0  0
   -6.5214    3.5975    0.0775 H   0  0  0  0  0  0  0  0  0  0  0  0
   -7.7579   -3.5079    0.3717 H   0  0  0  0  0  0  0  0  0  0  0  0
   -2.1738   -2.9853    0.4688 H   0  0  0  0  0  0  0  0  0  0  0  0
    0.2420   -2.8287    0.0234 H   0  0  0  0  0  0  0  0  0  0  0  0
    4.2573   -1.5543   -0.9684 H   0  0  0  0  0  0  0  0  0  0  0  0
  1  2  1  0
  2  3  2  0
  3  4  1  0
  4  5  2  0
  4  6  1  0
  6  7  2  0
  7  8  1  0
  7  9  1  0
  9 10  1  0
 10 11  1  0
 11 12  1  0
 12 13  1  0
 13 14  1  0
 14 15  2  0
 15 16  1  0
 16 17  2  0
 17 18  1  0
 18 19  2  0
 18 20  1  0
 20 21  1  0
 21 22  1  0
 22 23  1  0
 23 24  1  0
 24 25  2  0
 24 26  1  0
 21 27  1  0
 27 28  2  0
 27 29  1  0
 17 30  1  0
 30 31  2  0
 11 32  1  0
  8  2  1  0
 31 14  1  0
 32  6  1  0
  1 33  1  0
  1 34  1  0
  8 35  1  0
  9 36  1  0
 10 37  1  0
 10 38  1  0
 11 39  1  6
 12 40  1  0
 12 41  1  0
 13 42  1  0
 15 43  1  0
 16 44  1  0
 20 45  1  0
 21 46  1  1
 22 47  1  0
 22 48  1  0
 23 49  1  0
 23 50  1  0
 26 51  1  0
 29 52  1  0
 30 53  1  0
 31 54  1  0
 32 55  1  0
M  END
$$$$

     RDKit          3D

 55 57  0  0  0  0  0  0  0  0999 V2000
   -7.9343    2.9521   -1.5651 N   0  0  0  0  0  0  0  0  0  0  0  0
   -7.2515    1.7918   -1.1143 C   0  0  0  0  0  0  0  0  0  0  0  0
   -7.8874    0.5992   -1.0346 N   0  0  0  0  0  0  0  0  0  0  0  0
   -7.2964   -0.5107   -0.6211 C   0  0  0  0  0  0  0  0  0  0  0  0
   -7.8757   -1.6402   -0.5388 O   0  0  0  0  0  0  0  0  0  0  0  0
   -5.9585   -0.4661   -0.2474 C   0  0  0  0  0  0  0  0  0  0  0  0
   -5.3087    0.7358   -0.3252 C   0  0  0  0  0  0  0  0  0  0  0  0
   -5.9658    1.8618   -0.7612 N   0  0  0  0  0  0  0  0  0  0  0  0
   -3.9454    0.8249    0.0484 N   0  0  0  0  0  0  0  0  0  0  0  0
   -3.1625   -0.4104    0.0971 C   0  0  0  0  0  0  0  0  0  0  0  0
   -3.9445   -1.5050    0.7549 C   0  0  2  0  0  0  0  0  0  0  0  0
   -3.2017   -2.8085    0.6818 C   0  0  0  0  0  0  0  0  0  0  0  0
   -1.9422   -2.7287    1.3371 N   0  0  0  0  0  0  0  0  0  0  0  0
   -0.7409   -2.1747    0.8857 C   0  0  0  0  0  0  0  0  0  0  0  0
    0.2338   -1.8095    1.8016 C   0  0  0  0  0  0  0  0  0  0  0  0
    1.4445   -1.2952    1.4404 C   0  0  0  0  0  0  0  0  0  0  0  0
    1.7321   -1.1227    0.1061 C   0  0  0  0  0  0  0  0  0  0  0  0
    3.0007   -0.5756   -0.3587 C   0  0  0  0  0  0  0  0  0  0  0  0
    3.2878   -0.5689   -1.6034 O   0  0  0  0  0  0  0  0  0  0  0  0
    3.9868   -0.0255    0.4939 N   0  0  0  0  0  0  0  0  0  0  0  0
    5.2632    0.5190   -0.0139 C   0  0  1  0  0  0  0  0  0  0  0  0
    5.2494    1.9974    0.1024 C   0  0  0  0  0  0  0  0  0  0  0  0
    6.5246    2.6372   -0.3172 C   0  0  0  0  0  0  0  0  0  0  0  0
    7.5931    2.3535    0.6502 C   0  0  0  0  0  0  0  0  0  0  0  0
    7.2606    1.9297    1.8065 O   0  0  0  0  0  0  0  0  0  0  0  0
    8.9401    2.5177    0.3858 O   0  0  0  0  0  0  0  0  0  0  0  0
    6.3669   -0.2749    0.4572 C   0  0  0  0  0  0  0  0  0  0  0  0
    6.1755   -1.0922    1.4237 O   0  0  0  0  0  0  0  0  0  0  0  0
    7.6620   -0.2604   -0.0430 O   0  0  0  0  0  0  0  0  0  0  0  0
    0.7871   -1.4739   -0.8555 C   0  0  0  0  0  0  0  0  0  0  0  0
   -0.4263   -1.9904   -0.4656 C   0  0  0  0  0  0  0  0  0  0  0  0
   -5.2768   -1.6171    0.2002 N   0  0  0  0  0  0  0  0  0  0  0  0
   -8.0387    3.8111   -1.0018 H   0  0  0  0  0  0  0  0  0  0  0  0
   -8.3531    2.9347   -2.5179 H   0  0  0  0  0  0  0  0  0  0  0  0
   -5.3998    2.7578   -0.7957 H   0  0  0  0  0  0  0  0  0  0  0  0
   -3.5375    1.7702    0.2779 H   0  0  0  0  0  0  0  0  0  0  0  0
   -2.8865   -0.6425   -0.9455 H   0  0  0  0  0  0  0  0  0  0  0  0
   -2.2624   -0.1503    0.6837 H   0  0  0  0  0  0  0  0  0  0  0  0
   -4.1286   -1.2198    1.8417 H   0  0  0  0  0  0  0  0  0  0  0  0
   -3.8567   -3.6135    1.1251 H   0  0  0  0  0  0  0  0  0  0  0  0
   -3.0859   -3.1473   -0.3903 H   0  0  0  0  0  0  0  0  0  0  0  0
   -1.9120   -3.1571    2.3176 H   0  0  0  0  0  0  0  0  0  0  0  0
    0.0509   -1.9271    2.8814 H   0  0  0  0  0  0  0  0  0  0  0  0
    2.2033   -1.0126    2.1852 H   0  0  0  0  0  0  0  0  0  0  0  0
    3.8217    0.0044    1.5193 H   0  0  0  0  0  0  0  0  0  0  0  0
    5.2457    0.3396   -1.1654 H   0  0  0  0  0  0  0  0  0  0  0  0
    4.4186    2.3514   -0.5950 H   0  0  0  0  0  0  0  0  0  0  0  0
    4.9116    2.3510    1.1124 H   0  0  0  0  0  0  0  0  0  0  0  0
    6.8641    2.3009   -1.3273 H   0  0  0  0  0  0  0  0  0  0  0  0
    6.3711    3.7483   -0.4512 H   0  0  0  0  0  0  0  0  0  0  0  0
    9.6095    2.8053    1.0913 H   0  0  0  0  0  0  0  0  0  0  0  0
    8.4487   -0.5190    0.5547 H   0  0  0  0  0  0  0  0  0  0  0  0
    1.0200   -1.3362   -1.9100 H   0  0  0  0  0  0  0  0  0  0  0  0
   -1.1761   -2.2740   -1.2180 H   0  0  0  0  0  0  0  0  0  0  0  0
   -5.7174   -2.5447    0.1374 H   0  0  0  0  0  0  0  0  0  0  0  0
  1  2  1  0
  2  3  2  0
  3  4  1  0
  4  5  2  0
  4  6  1  0
  6  7  2  0
  7  8  1  0
  7  9  1  0
  9 10  1  0
 10 11  1  0
 11 12  1  0
 12 13  1  0
 13 14  1  0
 14 15  2  0
 15 16  1  0
 16 17  2  0
 17 18  1  0
 18 19  2  0
 18 20  1  0
 20 21  1  0
 21 22  1  0
 22 23  1  0
 23 24  1  0
 24 25  2  0
 24 26  1  0
 21 27  1  0
 27 28  2  0
 27 29  1  0
 17 30  1  0
 30 31  2  0
 11 32  1  0
  8  2  1  0
 31 14  1  0
 32  6  1  0
  1 33  1  0
  1 34  1  0
  8 35  1  0
  9 36  1  0
 10 37  1  0
 10 38  1  0
 11 39  1  1
 12 40  1  0
 12 41  1  0
 13 42  1  0
 15 43  1  0
 16 44  1  0
 20 45  1  0
 21 46  1  6
 22 47  1  0
 22 48  1  0
 23 49  1  0
 23 50  1  0
 26 51  1  0
 29 52  1  0
 30 53  1  0
 31 54  1  0
 32 55  1  0
M  END
$$$$

     RDKit          3D

 55 57  0  0  0  0  0  0  0  0999 V2000
    8.1782   -2.7867   -0.4465 N   0  0  0  0  0  0  0  0  0  0  0  0
    7.2363   -1.7361   -0.6710 C   0  0  0  0  0  0  0  0  0  0  0  0
    6.4338   -1.7627   -1.7230 N   0  0  0  0  0  0  0  0  0  0  0  0
    5.5487   -0.7768   -1.9371 C   0  0  0  0  0  0  0  0  0  0  0  0
    4.7797   -0.7593   -2.9040 O   0  0  0  0  0  0  0  0  0  0  0  0
    5.4861    0.2700   -1.0412 C   0  0  0  0  0  0  0  0  0  0  0  0
    6.3336    0.2679    0.0432 C   0  0  0  0  0  0  0  0  0  0  0  0
    7.2211   -0.7335    0.2457 N   0  0  0  0  0  0  0  0  0  0  0  0
    6.2645    1.3481    0.9538 N   0  0  0  0  0  0  0  0  0  0  0  0
    5.0121    2.0136    1.1351 C   0  0  0  0  0  0  0  0  0  0  0  0
    4.1709    2.1443   -0.0929 C   0  0  2  0  0  0  0  0  0  0  0  0
    2.7583    1.6922    0.2615 C   0  0  0  0  0  0  0  0  0  0  0  0
    1.9069    1.8072   -0.9052 N   0  0  0  0  0  0  0  0  0  0  0  0
    0.5391    1.4589   -0.7470 C   0  0  0  0  0  0  0  0  0  0  0  0
    0.0254    0.9924    0.4453 C   0  0  0  0  0  0  0  0  0  0  0  0
   -1.3048    0.6667    0.5998 C   0  0  0  0  0  0  0  0  0  0  0  0
   -2.1615    0.8057   -0.4599 C   0  0  0  0  0  0  0  0  0  0  0  0
   -3.5857    0.4738   -0.3378 C   0  0  0  0  0  0  0  0  0  0  0  0
   -4.4274    1.1200   -0.9990 O   0  0  0  0  0  0  0  0  0  0  0  0
   -4.0226   -0.5572    0.5082 N   0  0  0  0  0  0  0  0  0  0  0  0
   -5.4722   -0.8298    0.5941 C   0  0  1  0  0  0  0  0  0  0  0  0
   -5.7712   -2.1164   -0.1648 C   0  0  0  0  0  0  0  0  0  0  0  0
   -7.2457   -2.3949   -0.0700 C   0  0  0  0  0  0  0  0  0  0  0  0
   -7.9730   -1.2392   -0.6388 C   0  0  0  0  0  0  0  0  0  0  0  0
   -7.6224   -0.8433   -1.7947 O   0  0  0  0  0  0  0  0  0  0  0  0
   -9.0108   -0.5719    0.0275 O   0  0  0  0  0  0  0  0  0  0  0  0
   -5.8062   -0.8728    2.0152 C   0  0  0  0  0  0  0  0  0  0  0  0
   -4.8910   -0.7782    2.8822 O   0  0  0  0  0  0  0  0  0  0  0  0
   -7.0829   -1.0114    2.4792 O   0  0  0  0  0  0  0  0  0  0  0  0
   -1.6435    1.2720   -1.6507 C   0  0  0  0  0  0  0  0  0  0  0  0
   -0.3090    1.6008   -1.8132 C   0  0  0  0  0  0  0  0  0  0  0  0
    4.5842    1.3377   -1.2087 N   0  0  0  0  0  0  0  0  0  0  0  0
    7.8307   -3.6007    0.1059 H   0  0  0  0  0  0  0  0  0  0  0  0
    9.1424   -2.7133   -0.8265 H   0  0  0  0  0  0  0  0  0  0  0  0
    7.8544   -0.7171    1.0720 H   0  0  0  0  0  0  0  0  0  0  0  0
    7.1228    1.6467    1.4781 H   0  0  0  0  0  0  0  0  0  0  0  0
    5.1008    3.0403    1.5725 H   0  0  0  0  0  0  0  0  0  0  0  0
    4.4777    1.4396    1.9494 H   0  0  0  0  0  0  0  0  0  0  0  0
    4.0455    3.2253   -0.3940 H   0  0  0  0  0  0  0  0  0  0  0  0
    2.7201    0.6336    0.5866 H   0  0  0  0  0  0  0  0  0  0  0  0
    2.3620    2.3299    1.0996 H   0  0  0  0  0  0  0  0  0  0  0  0
    2.2481    2.1237   -1.8365 H   0  0  0  0  0  0  0  0  0  0  0  0
    0.7051    0.8789    1.3056 H   0  0  0  0  0  0  0  0  0  0  0  0
   -1.7046    0.3005    1.5414 H   0  0  0  0  0  0  0  0  0  0  0  0
   -3.3594   -1.1409    1.0848 H   0  0  0  0  0  0  0  0  0  0  0  0
   -5.9776   -0.0141    0.0526 H   0  0  0  0  0  0  0  0  0  0  0  0
   -5.2025   -2.9641    0.2231 H   0  0  0  0  0  0  0  0  0  0  0  0
   -5.5242   -1.8938   -1.2337 H   0  0  0  0  0  0  0  0  0  0  0  0
   -7.5097   -3.3269   -0.6586 H   0  0  0  0  0  0  0  0  0  0  0  0
   -7.5131   -2.5517    0.9818 H   0  0  0  0  0  0  0  0  0  0  0  0
   -9.5782    0.1182   -0.4885 H   0  0  0  0  0  0  0  0  0  0  0  0
   -7.2959   -1.2118    3.4720 H   0  0  0  0  0  0  0  0  0  0  0  0
   -2.3301    1.3843   -2.5030 H   0  0  0  0  0  0  0  0  0  0  0  0
    0.0236    1.9610   -2.7868 H   0  0  0  0  0  0  0  0  0  0  0  0
    4.2132    1.5509   -2.1504 H   0  0  0  0  0  0  0  0  0  0  0  0
  1  2  1  0
  2  3  2  0
  3  4  1  0
  4  5  2  0
  4  6  1  0
  6  7  2  0
  7  8  1  0
  7  9  1  0
  9 10  1  0
 10 11  1  0
 11 12  1  0
 12 13  1  0
 13 14  1  0
 14 15  2  0
 15 16  1  0
 16 17  2  0
 17 18  1  0
 18 19  2  0
 18 20  1  0
 20 21  1  0
 21 22  1  0
 22 23  1  0
 23 24  1  0
 24 25  2  0
 24 26  1  0
 21 27  1  0
 27 28  2  0
 27 29  1  0
 17 30  1  0
 30 31  2  0
 11 32  1  0
  8  2  1  0
 31 14  1  0
 32  6  1  0
  1 33  1  0
  1 34  1  0
  8 35  1  0
  9 36  1  0
 10 37  1  0
 10 38  1  0
 11 39  1  6
 12 40  1  0
 12 41  1  0
 13 42  1  0
 15 43  1  0
 16 44  1  0
 20 45  1  0
 21 46  1  6
 22 47  1  0
 22 48  1  0
 23 49  1  0
 23 50  1  0
 26 51  1  0
 29 52  1  0
 30 53  1  0
 31 54  1  0
 32 55  1  0
M  END
$$$$

     RDKit          3D

 55 57  0  0  0  0  0  0  0  0999 V2000
    9.6175    0.7330    0.6391 N   0  0  0  0  0  0  0  0  0  0  0  0
    8.2220    0.6021    0.5107 C   0  0  0  0  0  0  0  0  0  0  0  0
    7.4525    1.0321    1.5548 N   0  0  0  0  0  0  0  0  0  0  0  0
    6.1242    0.9396    1.5366 C   0  0  0  0  0  0  0  0  0  0  0  0
    5.3691    1.3304    2.4944 O   0  0  0  0  0  0  0  0  0  0  0  0
    5.4938    0.3981    0.4358 C   0  0  0  0  0  0  0  0  0  0  0  0
    6.2731   -0.0393   -0.6318 C   0  0  0  0  0  0  0  0  0  0  0  0
    7.5917    0.0816   -0.5503 N   0  0  0  0  0  0  0  0  0  0  0  0
    5.5929   -0.5909   -1.7496 N   0  0  0  0  0  0  0  0  0  0  0  0
    4.3765   -1.3971   -1.5566 C   0  0  0  0  0  0  0  0  0  0  0  0
    3.5001   -0.7518   -0.5210 C   0  0  2  0  0  0  0  0  0  0  0  0
    2.3305   -0.1601   -1.2666 C   0  0  0  0  0  0  0  0  0  0  0  0
    1.5244    0.5557   -0.3154 N   0  0  0  0  0  0  0  0  0  0  0  0
    0.3561    0.0275    0.2799 C   0  0  0  0  0  0  0  0  0  0  0  0
   -0.6854    0.9581    0.4968 C   0  0  0  0  0  0  0  0  0  0  0  0
   -1.8758    0.5093    0.9726 C   0  0  0  0  0  0  0  0  0  0  0  0
   -2.1399   -0.8491    1.2609 C   0  0  0  0  0  0  0  0  0  0  0  0
   -3.5602   -1.1191    1.6033 C   0  0  0  0  0  0  0  0  0  0  0  0
   -3.9318   -1.7969    2.5384 O   0  0  0  0  0  0  0  0  0  0  0  0
   -4.4893   -0.4888    0.7222 N   0  0  0  0  0  0  0  0  0  0  0  0
   -5.9398   -0.5189    0.8047 C   0  0  1  0  0  0  0  0  0  0  0  0
   -6.3843    0.8619    0.8582 C   0  0  0  0  0  0  0  0  0  0  0  0
   -6.2099    1.7171   -0.3483 C   0  0  0  0  0  0  0  0  0  0  0  0
   -7.3773    1.6386   -1.2796 C   0  0  0  0  0  0  0  0  0  0  0  0
   -7.4652    1.2928   -2.4466 O   0  0  0  0  0  0  0  0  0  0  0  0
   -8.6037    2.0457   -0.6744 O   0  0  0  0  0  0  0  0  0  0  0  0
   -6.4416   -1.4049   -0.2408 C   0  0  0  0  0  0  0  0  0  0  0  0
   -6.8290   -2.5881    0.0699 O   0  0  0  0  0  0  0  0  0  0  0  0
   -6.5073   -1.0634   -1.5793 O   0  0  0  0  0  0  0  0  0  0  0  0
   -1.1446   -1.7417    1.0598 C   0  0  0  0  0  0  0  0  0  0  0  0
    0.0876   -1.2707    0.5701 C   0  0  0  0  0  0  0  0  0  0  0  0
    4.1183    0.2366    0.2987 N   0  0  0  0  0  0  0  0  0  0  0  0
   10.0987    0.0692    1.2973 H   0  0  0  0  0  0  0  0  0  0  0  0
   10.1398    1.4348    0.1192 H   0  0  0  0  0  0  0  0  0  0  0  0
    8.1535   -0.2523   -1.3857 H   0  0  0  0  0  0  0  0  0  0  0  0
    5.9279   -0.4328   -2.7097 H   0  0  0  0  0  0  0  0  0  0  0  0
    4.7004   -2.3950   -1.2316 H   0  0  0  0  0  0  0  0  0  0  0  0
    3.8865   -1.5082   -2.5435 H   0  0  0  0  0  0  0  0  0  0  0  0
    3.1651   -1.5642    0.1726 H   0  0  0  0  0  0  0  0  0  0  0  0
    1.6405   -1.0690   -1.5560 H   0  0  0  0  0  0  0  0  0  0  0  0
    2.5455    0.4115   -2.1664 H   0  0  0  0  0  0  0  0  0  0  0  0
    1.7926    1.5289   -0.0056 H   0  0  0  0  0  0  0  0  0  0  0  0
   -0.4999    2.0004    0.2825 H   0  0  0  0  0  0  0  0  0  0  0  0
   -2.7376    1.1796    1.1465 H   0  0  0  0  0  0  0  0  0  0  0  0
   -4.0565    0.0852   -0.0741 H   0  0  0  0  0  0  0  0  0  0  0  0
   -6.2267   -1.0133    1.8118 H   0  0  0  0  0  0  0  0  0  0  0  0
   -7.4459    0.9621    1.2700 H   0  0  0  0  0  0  0  0  0  0  0  0
   -5.7268    1.4027    1.6565 H   0  0  0  0  0  0  0  0  0  0  0  0
   -5.3550    1.3144   -0.9992 H   0  0  0  0  0  0  0  0  0  0  0  0
   -5.8738    2.7583   -0.1676 H   0  0  0  0  0  0  0  0  0  0  0  0
   -9.4718    1.5861   -0.8550 H   0  0  0  0  0  0  0  0  0  0  0  0
   -6.1635   -1.7599   -2.2938 H   0  0  0  0  0  0  0  0  0  0  0  0
   -1.3176   -2.7748    1.2979 H   0  0  0  0  0  0  0  0  0  0  0  0
    0.8763   -2.0312    0.4389 H   0  0  0  0  0  0  0  0  0  0  0  0
    3.5028    0.8884    0.8461 H   0  0  0  0  0  0  0  0  0  0  0  0
  1  2  1  0
  2  3  2  0
  3  4  1  0
  4  5  2  0
  4  6  1  0
  6  7  2  0
  7  8  1  0
  7  9  1  0
  9 10  1  0
 10 11  1  0
 11 12  1  0
 12 13  1  0
 13 14  1  0
 14 15  2  0
 15 16  1  0
 16 17  2  0
 17 18  1  0
 18 19  2  0
 18 20  1  0
 20 21  1  0
 21 22  1  0
 22 23  1  0
 23 24  1  0
 24 25  2  0
 24 26  1  0
 21 27  1  0
 27 28  2  0
 27 29  1  0
 17 30  1  0
 30 31  2  0
 11 32  1  0
  8  2  1  0
 31 14  1  0
 32  6  1  0
  1 33  1  0
  1 34  1  0
  8 35  1  0
  9 36  1  0
 10 37  1  0
 10 38  1  0
 11 39  1  1
 12 40  1  0
 12 41  1  0
 13 42  1  0
 15 43  1  0
 16 44  1  0
 20 45  1  0
 21 46  1  1
 22 47  1  0
 22 48  1  0
 23 49  1  0
 23 50  1  0
 26 51  1  0
 29 52  1  0
 30 53  1  0
 31 54  1  0
 32 55  1  0
M  END
$$$$

     RDKit          3D

 55 57  0  0  0  0  0  0  0  0999 V2000
   -8.9667   -0.4620   -1.0441 N   0  0  0  0  0  0  0  0  0  0  0  0
   -7.6156   -0.5091   -0.5887 C   0  0  0  0  0  0  0  0  0  0  0  0
   -6.9456   -1.6730   -0.5395 N   0  0  0  0  0  0  0  0  0  0  0  0
   -5.6737   -1.7190   -0.1084 C   0  0  0  0  0  0  0  0  0  0  0  0
   -5.0284   -2.8066   -0.0557 O   0  0  0  0  0  0  0  0  0  0  0  0
   -5.0724   -0.5230    0.2858 C   0  0  0  0  0  0  0  0  0  0  0  0
   -5.7779    0.6646    0.2275 C   0  0  0  0  0  0  0  0  0  0  0  0
   -7.0413    0.6499   -0.2101 N   0  0  0  0  0  0  0  0  0  0  0  0
   -5.1165    1.8672    0.6408 N   0  0  0  0  0  0  0  0  0  0  0  0
   -3.9089    1.7218    1.4107 C   0  0  0  0  0  0  0  0  0  0  0  0
   -3.0107    0.7292    0.7389 C   0  0  2  0  0  0  0  0  0  0  0  0
   -2.8274    1.0285   -0.7505 C   0  0  0  0  0  0  0  0  0  0  0  0
   -1.9531    0.0229   -1.2846 N   0  0  0  0  0  0  0  0  0  0  0  0
   -0.6076   -0.0361   -0.8907 C   0  0  0  0  0  0  0  0  0  0  0  0
   -0.0265    1.0236   -0.2456 C   0  0  0  0  0  0  0  0  0  0  0  0
    1.2800    0.9646    0.1604 C   0  0  0  0  0  0  0  0  0  0  0  0
    2.0321   -0.1747   -0.0806 C   0  0  0  0  0  0  0  0  0  0  0  0
    3.4200   -0.2716    0.3446 C   0  0  0  0  0  0  0  0  0  0  0  0
    3.8162    0.6725    1.1123 O   0  0  0  0  0  0  0  0  0  0  0  0
    4.2531   -1.3195   -0.0592 N   0  0  0  0  0  0  0  0  0  0  0  0
    5.6338   -1.4990    0.2819 C   0  0  1  0  0  0  0  0  0  0  0  0
    6.3819   -0.2325    0.6507 C   0  0  0  0  0  0  0  0  0  0  0  0
    6.4005    0.7102   -0.5288 C   0  0  0  0  0  0  0  0  0  0  0  0
    7.1347    1.9594   -0.1280 C   0  0  0  0  0  0  0  0  0  0  0  0
    8.3065    1.9103    0.3088 O   0  0  0  0  0  0  0  0  0  0  0  0
    6.4796    3.1826   -0.2534 O   0  0  0  0  0  0  0  0  0  0  0  0
    5.8218   -2.6116    1.1921 C   0  0  0  0  0  0  0  0  0  0  0  0
    4.8062   -3.2734    1.5817 O   0  0  0  0  0  0  0  0  0  0  0  0
    7.0405   -3.0411    1.6999 O   0  0  0  0  0  0  0  0  0  0  0  0
    1.4550   -1.2409   -0.7283 C   0  0  0  0  0  0  0  0  0  0  0  0
    0.1271   -1.1638   -1.1322 C   0  0  0  0  0  0  0  0  0  0  0  0
   -3.7276   -0.5613    0.7457 N   0  0  0  0  0  0  0  0  0  0  0  0
   -9.1702   -0.2454   -2.0332 H   0  0  0  0  0  0  0  0  0  0  0  0
   -9.7235   -0.6521   -0.3481 H   0  0  0  0  0  0  0  0  0  0  0  0
   -7.5850    1.5461   -0.2602 H   0  0  0  0  0  0  0  0  0  0  0  0
   -5.5237    2.7931    0.3729 H   0  0  0  0  0  0  0  0  0  0  0  0
   -3.4104    2.6904    1.6196 H   0  0  0  0  0  0  0  0  0  0  0  0
   -4.2147    1.2773    2.3847 H   0  0  0  0  0  0  0  0  0  0  0  0
   -2.0379    0.6248    1.2104 H   0  0  0  0  0  0  0  0  0  0  0  0
   -2.4253    2.0585   -0.8920 H   0  0  0  0  0  0  0  0  0  0  0  0
   -3.8194    0.9257   -1.2630 H   0  0  0  0  0  0  0  0  0  0  0  0
   -2.3186   -0.6667   -1.9676 H   0  0  0  0  0  0  0  0  0  0  0  0
   -0.5804    1.9571   -0.0455 H   0  0  0  0  0  0  0  0  0  0  0  0
    1.7581    1.7923    0.6733 H   0  0  0  0  0  0  0  0  0  0  0  0
    3.8542   -2.0873   -0.6925 H   0  0  0  0  0  0  0  0  0  0  0  0
    6.1618   -1.7632   -0.7120 H   0  0  0  0  0  0  0  0  0  0  0  0
    6.0220    0.2916    1.5251 H   0  0  0  0  0  0  0  0  0  0  0  0
    7.4456   -0.5474    0.8849 H   0  0  0  0  0  0  0  0  0  0  0  0
    7.0084    0.1968   -1.3303 H   0  0  0  0  0  0  0  0  0  0  0  0
    5.4120    0.9569   -0.8677 H   0  0  0  0  0  0  0  0  0  0  0  0
    6.6356    3.9004    0.4726 H   0  0  0  0  0  0  0  0  0  0  0  0
    7.0526   -3.4125    2.6653 H   0  0  0  0  0  0  0  0  0  0  0  0
    1.9561   -2.1625   -0.9558 H   0  0  0  0  0  0  0  0  0  0  0  0
   -0.2967   -2.0337   -1.6443 H   0  0  0  0  0  0  0  0  0  0  0  0
   -3.2896   -1.4292    1.0587 H   0  0  0  0  0  0  0  0  0  0  0  0
  1  2  1  0
  2  3  2  0
  3  4  1  0
  4  5  2  0
  4  6  1  0
  6  7  2  0
  7  8  1  0
  7  9  1  0
  9 10  1  0
 10 11  1  0
 11 12  1  0
 12 13  1  0
 13 14  1  0
 14 15  2  0
 15 16  1  0
 16 17  2  0
 17 18  1  0
 18 19  2  0
 18 20  1  0
 20 21  1  0
 21 22  1  0
 22 23  1  0
 23 24  1  0
 24 25  2  0
 24 26  1  0
 21 27  1  0
 27 28  2  0
 27 29  1  0
 17 30  1  0
 30 31  2  0
 11 32  1  0
  8  2  1  0
 31 14  1  0
 32  6  1  0
  1 33  1  0
  1 34  1  0
  8 35  1  0
  9 36  1  0
 10 37  1  0
 10 38  1  0
 11 39  1  1
 12 40  1  0
 12 41  1  0
 13 42  1  0
 15 43  1  0
 16 44  1  0
 20 45  1  0
 21 46  1  6
 22 47  1  0
 22 48  1  0
 23 49  1  0
 23 50  1  0
 26 51  1  0
 29 52  1  0
 30 53  1  0
 31 54  1  0
 32 55  1  0
M  END
$$$$

     RDKit          3D

 55 57  0  0  0  0  0  0  0  0999 V2000
    7.8543   -3.2487    1.7273 N   0  0  0  0  0  0  0  0  0  0  0  0
    7.0559   -2.2676    1.0911 C   0  0  0  0  0  0  0  0  0  0  0  0
    7.2433   -1.9865   -0.2306 N   0  0  0  0  0  0  0  0  0  0  0  0
    6.5424   -1.0840   -0.9081 C   0  0  0  0  0  0  0  0  0  0  0  0
    6.7234   -0.8329   -2.1259 O   0  0  0  0  0  0  0  0  0  0  0  0
    5.5565   -0.3756   -0.2470 C   0  0  0  0  0  0  0  0  0  0  0  0
    5.3536   -0.6496    1.0966 C   0  0  0  0  0  0  0  0  0  0  0  0
    6.0984   -1.5795    1.7325 N   0  0  0  0  0  0  0  0  0  0  0  0
    4.3397    0.0843    1.7598 N   0  0  0  0  0  0  0  0  0  0  0  0
    3.3411    0.8976    1.0575 C   0  0  0  0  0  0  0  0  0  0  0  0
    4.0875    1.5825   -0.0486 C   0  0  2  0  0  0  0  0  0  0  0  0
    3.2783    2.5447   -0.8753 C   0  0  0  0  0  0  0  0  0  0  0  0
    2.1571    1.9901   -1.5466 N   0  0  0  0  0  0  0  0  0  0  0  0
    0.9131    1.6118   -0.9861 C   0  0  0  0  0  0  0  0  0  0  0  0
    0.0739    0.7807   -1.6932 C   0  0  0  0  0  0  0  0  0  0  0  0
   -1.1618    0.3974   -1.2115 C   0  0  0  0  0  0  0  0  0  0  0  0
   -1.5935    0.8440    0.0083 C   0  0  0  0  0  0  0  0  0  0  0  0
   -2.8836    0.4401    0.5080 C   0  0  0  0  0  0  0  0  0  0  0  0
   -3.2359    0.8272    1.6792 O   0  0  0  0  0  0  0  0  0  0  0  0
   -3.8154   -0.3622   -0.1932 N   0  0  0  0  0  0  0  0  0  0  0  0
   -5.1112   -0.7356    0.3805 C   0  0  1  0  0  0  0  0  0  0  0  0
   -6.1329   -0.1892   -0.5827 C   0  0  0  0  0  0  0  0  0  0  0  0
   -7.5526   -0.4336   -0.2238 C   0  0  0  0  0  0  0  0  0  0  0  0
   -8.4059    0.2084   -1.2912 C   0  0  0  0  0  0  0  0  0  0  0  0
   -9.6473    0.1272   -1.1969 O   0  0  0  0  0  0  0  0  0  0  0  0
   -7.8229    0.8631   -2.3365 O   0  0  0  0  0  0  0  0  0  0  0  0
   -5.2518   -2.2057    0.4419 C   0  0  0  0  0  0  0  0  0  0  0  0
   -4.3763   -2.9942   -0.0050 O   0  0  0  0  0  0  0  0  0  0  0  0
   -6.3816   -2.7530    1.0116 O   0  0  0  0  0  0  0  0  0  0  0  0
   -0.7734    1.6750    0.7325 C   0  0  0  0  0  0  0  0  0  0  0  0
    0.4754    2.0598    0.2407 C   0  0  0  0  0  0  0  0  0  0  0  0
    4.7624    0.6032   -0.8905 N   0  0  0  0  0  0  0  0  0  0  0  0
    8.8142   -3.0120    2.0198 H   0  0  0  0  0  0  0  0  0  0  0  0
    7.4701   -4.1884    1.8923 H   0  0  0  0  0  0  0  0  0  0  0  0
    5.9401   -1.7834    2.7521 H   0  0  0  0  0  0  0  0  0  0  0  0
    4.2896    0.0531    2.7906 H   0  0  0  0  0  0  0  0  0  0  0  0
    2.5789    0.1985    0.6381 H   0  0  0  0  0  0  0  0  0  0  0  0
    2.9449    1.6287    1.7600 H   0  0  0  0  0  0  0  0  0  0  0  0
    4.9407    2.1296    0.4618 H   0  0  0  0  0  0  0  0  0  0  0  0
    3.0195    3.4367   -0.2511 H   0  0  0  0  0  0  0  0  0  0  0  0
    4.0137    2.9696   -1.6228 H   0  0  0  0  0  0  0  0  0  0  0  0
    2.2708    1.8434   -2.5998 H   0  0  0  0  0  0  0  0  0  0  0  0
    0.4084    0.4247   -2.6561 H   0  0  0  0  0  0  0  0  0  0  0  0
   -1.7345   -0.2642   -1.8635 H   0  0  0  0  0  0  0  0  0  0  0  0
   -3.5540   -0.6868   -1.1442 H   0  0  0  0  0  0  0  0  0  0  0  0
   -5.2413   -0.3266    1.3858 H   0  0  0  0  0  0  0  0  0  0  0  0
   -5.9481    0.9040   -0.7480 H   0  0  0  0  0  0  0  0  0  0  0  0
   -5.9444   -0.7344   -1.5564 H   0  0  0  0  0  0  0  0  0  0  0  0
   -7.7960   -0.0357    0.7783 H   0  0  0  0  0  0  0  0  0  0  0  0
   -7.7923   -1.5297   -0.2561 H   0  0  0  0  0  0  0  0  0  0  0  0
   -8.3387    1.4996   -2.9643 H   0  0  0  0  0  0  0  0  0  0  0  0
   -6.6896   -3.7034    0.8563 H   0  0  0  0  0  0  0  0  0  0  0  0
   -1.1097    2.0333    1.7014 H   0  0  0  0  0  0  0  0  0  0  0  0
    1.0648    2.7070    0.8346 H   0  0  0  0  0  0  0  0  0  0  0  0
    4.6827    0.5973   -1.9345 H   0  0  0  0  0  0  0  0  0  0  0  0
  1  2  1  0
  2  3  2  0
  3  4  1  0
  4  5  2  0
  4  6  1  0
  6  7  2  0
  7  8  1  0
  7  9  1  0
  9 10  1  0
 10 11  1  0
 11 12  1  0
 12 13  1  0
 13 14  1  0
 14 15  2  0
 15 16  1  0
 16 17  2  0
 17 18  1  0
 18 19  2  0
 18 20  1  0
 20 21  1  0
 21 22  1  0
 22 23  1  0
 23 24  1  0
 24 25  2  0
 24 26  1  0
 21 27  1  0
 27 28  2  0
 27 29  1  0
 17 30  1  0
 30 31  2  0
 11 32  1  0
  8  2  1  0
 31 14  1  0
 32  6  1  0
  1 33  1  0
  1 34  1  0
  8 35  1  0
  9 36  1  0
 10 37  1  0
 10 38  1  0
 11 39  1  1
 12 40  1  0
 12 41  1  0
 13 42  1  0
 15 43  1  0
 16 44  1  0
 20 45  1  0
 21 46  1  1
 22 47  1  0
 22 48  1  0
 23 49  1  0
 23 50  1  0
 26 51  1  0
 29 52  1  0
 30 53  1  0
 31 54  1  0
 32 55  1  0
M  END
$$$$

     RDKit          3D

 55 57  0  0  0  0  0  0  0  0999 V2000
   10.0087   -0.1283   -1.3587 N   0  0  0  0  0  0  0  0  0  0  0  0
    8.7126    0.1467   -0.8135 C   0  0  0  0  0  0  0  0  0  0  0  0
    8.3557    1.4073   -0.4935 N   0  0  0  0  0  0  0  0  0  0  0  0
    7.1503    1.7029    0.0192 C   0  0  0  0  0  0  0  0  0  0  0  0
    6.8157    2.8875    0.3197 O   0  0  0  0  0  0  0  0  0  0  0  0
    6.2202    0.7146    0.2403 C   0  0  0  0  0  0  0  0  0  0  0  0
    6.5901   -0.5876   -0.0907 C   0  0  0  0  0  0  0  0  0  0  0  0
    7.8093   -0.8331   -0.6016 N   0  0  0  0  0  0  0  0  0  0  0  0
    5.6225   -1.6017    0.1414 N   0  0  0  0  0  0  0  0  0  0  0  0
    4.5532   -1.4905    1.0825 C   0  0  0  0  0  0  0  0  0  0  0  0
    4.1085   -0.0987    1.3747 C   0  0  2  0  0  0  0  0  0  0  0  0
    2.6939    0.1505    0.8855 C   0  0  0  0  0  0  0  0  0  0  0  0
    1.8137   -0.7748    1.5559 N   0  0  0  0  0  0  0  0  0  0  0  0
    0.4176   -0.7283    1.2533 C   0  0  0  0  0  0  0  0  0  0  0  0
   -0.4804   -1.5828    1.8576 C   0  0  0  0  0  0  0  0  0  0  0  0
   -1.8281   -1.5411    1.5684 C   0  0  0  0  0  0  0  0  0  0  0  0
   -2.3451   -0.6377    0.6558 C   0  0  0  0  0  0  0  0  0  0  0  0
   -3.7874   -0.6196    0.3704 C   0  0  0  0  0  0  0  0  0  0  0  0
   -4.5691   -1.4325    0.9587 O   0  0  0  0  0  0  0  0  0  0  0  0
   -4.3886    0.2703   -0.5455 N   0  0  0  0  0  0  0  0  0  0  0  0
   -5.8170    0.2403   -0.7848 C   0  0  1  0  0  0  0  0  0  0  0  0
   -6.3585    1.5710   -0.3735 C   0  0  0  0  0  0  0  0  0  0  0  0
   -7.8233    1.7600   -0.5387 C   0  0  0  0  0  0  0  0  0  0  0  0
   -8.6762    0.8352    0.2238 C   0  0  0  0  0  0  0  0  0  0  0  0
   -8.1991   -0.0401    0.9751 O   0  0  0  0  0  0  0  0  0  0  0  0
  -10.0506    0.9298    0.1120 O   0  0  0  0  0  0  0  0  0  0  0  0
   -6.1237   -0.0906   -2.2001 C   0  0  0  0  0  0  0  0  0  0  0  0
   -5.1841   -0.3015   -3.0125 O   0  0  0  0  0  0  0  0  0  0  0  0
   -7.4101   -0.1827   -2.6886 O   0  0  0  0  0  0  0  0  0  0  0  0
   -1.4555    0.2175    0.0494 C   0  0  0  0  0  0  0  0  0  0  0  0
   -0.0872    0.1739    0.3442 C   0  0  0  0  0  0  0  0  0  0  0  0
    4.9402    0.9215    0.7693 N   0  0  0  0  0  0  0  0  0  0  0  0
   10.8010   -0.4254   -0.7550 H   0  0  0  0  0  0  0  0  0  0  0  0
   10.1306   -0.0221   -2.3695 H   0  0  0  0  0  0  0  0  0  0  0  0
    8.0630   -1.8321   -0.8439 H   0  0  0  0  0  0  0  0  0  0  0  0
    5.7148   -2.4837   -0.4244 H   0  0  0  0  0  0  0  0  0  0  0  0
    3.6739   -2.0484    0.6470 H   0  0  0  0  0  0  0  0  0  0  0  0
    4.7905   -2.0643    2.0216 H   0  0  0  0  0  0  0  0  0  0  0  0
    4.1746    0.0572    2.4705 H   0  0  0  0  0  0  0  0  0  0  0  0
    2.6137    0.0637   -0.2086 H   0  0  0  0  0  0  0  0  0  0  0  0
    2.3754    1.1897    1.1902 H   0  0  0  0  0  0  0  0  0  0  0  0
    2.2092   -1.4500    2.2389 H   0  0  0  0  0  0  0  0  0  0  0  0
   -0.0572   -2.2940    2.5789 H   0  0  0  0  0  0  0  0  0  0  0  0
   -2.5179   -2.2214    2.0541 H   0  0  0  0  0  0  0  0  0  0  0  0
   -3.7929    0.9520   -1.0500 H   0  0  0  0  0  0  0  0  0  0  0  0
   -6.2508   -0.5424   -0.1588 H   0  0  0  0  0  0  0  0  0  0  0  0
   -6.1052    1.7652    0.6890 H   0  0  0  0  0  0  0  0  0  0  0  0
   -5.8491    2.3686   -0.9567 H   0  0  0  0  0  0  0  0  0  0  0  0
   -8.0488    2.7887   -0.1246 H   0  0  0  0  0  0  0  0  0  0  0  0
   -8.1321    1.8399   -1.6078 H   0  0  0  0  0  0  0  0  0  0  0  0
  -10.6919    0.3522    0.6531 H   0  0  0  0  0  0  0  0  0  0  0  0
   -7.6740   -0.9429   -3.3246 H   0  0  0  0  0  0  0  0  0  0  0  0
   -1.8093    0.9448   -0.6737 H   0  0  0  0  0  0  0  0  0  0  0  0
    0.6089    0.8573   -0.1433 H   0  0  0  0  0  0  0  0  0  0  0  0
    4.5449    1.8898    0.7277 H   0  0  0  0  0  0  0  0  0  0  0  0
  1  2  1  0
  2  3  2  0
  3  4  1  0
  4  5  2  0
  4  6  1  0
  6  7  2  0
  7  8  1  0
  7  9  1  0
  9 10  1  0
 10 11  1  0
 11 12  1  0
 12 13  1  0
 13 14  1  0
 14 15  2  0
 15 16  1  0
 16 17  2  0
 17 18  1  0
 18 19  2  0
 18 20  1  0
 20 21  1  0
 21 22  1  0
 22 23  1  0
 23 24  1  0
 24 25  2  0
 24 26  1  0
 21 27  1  0
 27 28  2  0
 27 29  1  0
 17 30  1  0
 30 31  2  0
 11 32  1  0
  8  2  1  0
 31 14  1  0
 32  6  1  0
  1 33  1  0
  1 34  1  0
  8 35  1  0
  9 36  1  0
 10 37  1  0
 10 38  1  0
 11 39  1  1
 12 40  1  0
 12 41  1  0
 13 42  1  0
 15 43  1  0
 16 44  1  0
 20 45  1  0
 21 46  1  1
 22 47  1  0
 22 48  1  0
 23 49  1  0
 23 50  1  0
 26 51  1  0
 29 52  1  0
 30 53  1  0
 31 54  1  0
 32 55  1  0
M  END
$$$$

     RDKit          3D

 55 57  0  0  0  0  0  0  0  0999 V2000
   -7.6932    3.7795    0.2389 N   0  0  0  0  0  0  0  0  0  0  0  0
   -6.7905    2.6821    0.3476 C   0  0  0  0  0  0  0  0  0  0  0  0
   -6.3947    2.2055    1.5493 N   0  0  0  0  0  0  0  0  0  0  0  0
   -5.5451    1.1740    1.6721 C   0  0  0  0  0  0  0  0  0  0  0  0
   -5.2047    0.7644    2.8171 O   0  0  0  0  0  0  0  0  0  0  0  0
   -5.0359    0.5518    0.5650 C   0  0  0  0  0  0  0  0  0  0  0  0
   -5.4493    1.0493   -0.6784 C   0  0  0  0  0  0  0  0  0  0  0  0
   -6.3011    2.0835   -0.7517 N   0  0  0  0  0  0  0  0  0  0  0  0
   -4.9347    0.4174   -1.8556 N   0  0  0  0  0  0  0  0  0  0  0  0
   -4.3709   -0.9189   -1.7701 C   0  0  0  0  0  0  0  0  0  0  0  0
   -3.4641   -1.0448   -0.5517 C   0  0  2  0  0  0  0  0  0  0  0  0
   -3.0691   -2.4840   -0.4094 C   0  0  0  0  0  0  0  0  0  0  0  0
   -2.2077   -2.7737    0.6894 N   0  0  0  0  0  0  0  0  0  0  0  0
   -0.8706   -2.3027    0.7617 C   0  0  0  0  0  0  0  0  0  0  0  0
   -0.1303   -2.3972    1.9328 C   0  0  0  0  0  0  0  0  0  0  0  0
    1.1645   -1.9423    1.9532 C   0  0  0  0  0  0  0  0  0  0  0  0
    1.8093   -1.3782    0.8595 C   0  0  0  0  0  0  0  0  0  0  0  0
    3.1856   -0.9225    0.9557 C   0  0  0  0  0  0  0  0  0  0  0  0
    3.8660   -1.2072    1.9677 O   0  0  0  0  0  0  0  0  0  0  0  0
    3.7494   -0.1605   -0.0912 N   0  0  0  0  0  0  0  0  0  0  0  0
    5.1496    0.3307   -0.0490 C   0  0  1  0  0  0  0  0  0  0  0  0
    5.8812   -0.4238   -1.1097 C   0  0  0  0  0  0  0  0  0  0  0  0
    7.3133   -0.0644   -1.3303 C   0  0  0  0  0  0  0  0  0  0  0  0
    7.4206    1.2821   -1.9378 C   0  0  0  0  0  0  0  0  0  0  0  0
    6.4035    1.7798   -2.4883 O   0  0  0  0  0  0  0  0  0  0  0  0
    8.5917    2.0238   -1.9285 O   0  0  0  0  0  0  0  0  0  0  0  0
    5.2534    1.7684   -0.0022 C   0  0  0  0  0  0  0  0  0  0  0  0
    4.2193    2.4684   -0.2594 O   0  0  0  0  0  0  0  0  0  0  0  0
    6.4120    2.4462    0.3157 O   0  0  0  0  0  0  0  0  0  0  0  0
    1.0604   -1.2937   -0.2906 C   0  0  0  0  0  0  0  0  0  0  0  0
   -0.2532   -1.7485   -0.3337 C   0  0  0  0  0  0  0  0  0  0  0  0
   -4.1339   -0.5406    0.6301 N   0  0  0  0  0  0  0  0  0  0  0  0
   -8.2566    4.0666    1.0661 H   0  0  0  0  0  0  0  0  0  0  0  0
   -7.7997    4.2997   -0.6509 H   0  0  0  0  0  0  0  0  0  0  0  0
   -6.5851    2.4248   -1.6929 H   0  0  0  0  0  0  0  0  0  0  0  0
   -4.9769    0.9386   -2.7617 H   0  0  0  0  0  0  0  0  0  0  0  0
   -5.1172   -1.7106   -1.7351 H   0  0  0  0  0  0  0  0  0  0  0  0
   -3.7244   -1.0887   -2.6570 H   0  0  0  0  0  0  0  0  0  0  0  0
   -2.6144   -0.3688   -0.7464 H   0  0  0  0  0  0  0  0  0  0  0  0
   -2.5634   -2.7887   -1.3740 H   0  0  0  0  0  0  0  0  0  0  0  0
   -3.9840   -3.1252   -0.3491 H   0  0  0  0  0  0  0  0  0  0  0  0
   -2.5640   -3.3566    1.4817 H   0  0  0  0  0  0  0  0  0  0  0  0
   -0.5947   -2.8289    2.8069 H   0  0  0  0  0  0  0  0  0  0  0  0
    1.7496   -2.0147    2.8714 H   0  0  0  0  0  0  0  0  0  0  0  0
    3.2403    0.1173   -0.9625 H   0  0  0  0  0  0  0  0  0  0  0  0
    5.5401   -0.0780    0.9568 H   0  0  0  0  0  0  0  0  0  0  0  0
    5.2868   -0.3047   -2.0723 H   0  0  0  0  0  0  0  0  0  0  0  0
    5.8693   -1.5316   -0.8992 H   0  0  0  0  0  0  0  0  0  0  0  0
    7.8764   -0.0216   -0.3532 H   0  0  0  0  0  0  0  0  0  0  0  0
    7.8408   -0.8163   -1.9655 H   0  0  0  0  0  0  0  0  0  0  0  0
    8.5711    3.0555   -1.8932 H   0  0  0  0  0  0  0  0  0  0  0  0
    6.3457    3.4237    0.5863 H   0  0  0  0  0  0  0  0  0  0  0  0
    1.5130   -0.8605   -1.1858 H   0  0  0  0  0  0  0  0  0  0  0  0
   -0.7385   -1.6424   -1.2927 H   0  0  0  0  0  0  0  0  0  0  0  0
   -3.9450   -0.9928    1.5356 H   0  0  0  0  0  0  0  0  0  0  0  0
  1  2  1  0
  2  3  2  0
  3  4  1  0
  4  5  2  0
  4  6  1  0
  6  7  2  0
  7  8  1  0
  7  9  1  0
  9 10  1  0
 10 11  1  0
 11 12  1  0
 12 13  1  0
 13 14  1  0
 14 15  2  0
 15 16  1  0
 16 17  2  0
 17 18  1  0
 18 19  2  0
 18 20  1  0
 20 21  1  0
 21 22  1  0
 22 23  1  0
 23 24  1  0
 24 25  2  0
 24 26  1  0
 21 27  1  0
 27 28  2  0
 27 29  1  0
 17 30  1  0
 30 31  2  0
 11 32  1  0
  8  2  1  0
 31 14  1  0
 32  6  1  0
  1 33  1  0
  1 34  1  0
  8 35  1  0
  9 36  1  0
 10 37  1  0
 10 38  1  0
 11 39  1  6
 12 40  1  0
 12 41  1  0
 13 42  1  0
 15 43  1  0
 16 44  1  0
 20 45  1  0
 21 46  1  1
 22 47  1  0
 22 48  1  0
 23 49  1  0
 23 50  1  0
 26 51  1  0
 29 52  1  0
 30 53  1  0
 31 54  1  0
 32 55  1  0
M  END
$$$$

     RDKit          3D

 55 57  0  0  0  0  0  0  0  0999 V2000
   -9.5327   -1.0058    0.3324 N   0  0  0  0  0  0  0  0  0  0  0  0
   -8.2953   -0.2894    0.3495 C   0  0  0  0  0  0  0  0  0  0  0  0
   -8.2101    0.9278    0.9187 N   0  0  0  0  0  0  0  0  0  0  0  0
   -7.0753    1.6273    0.9549 C   0  0  0  0  0  0  0  0  0  0  0  0
   -6.9770    2.7728    1.4857 O   0  0  0  0  0  0  0  0  0  0  0  0
   -5.9433    1.0510    0.3713 C   0  0  0  0  0  0  0  0  0  0  0  0
   -6.0580   -0.1966   -0.2047 C   0  0  0  0  0  0  0  0  0  0  0  0
   -7.2366   -0.8640   -0.2136 N   0  0  0  0  0  0  0  0  0  0  0  0
   -4.8851   -0.7843   -0.8047 N   0  0  0  0  0  0  0  0  0  0  0  0
   -3.8066    0.1377   -1.1008 C   0  0  0  0  0  0  0  0  0  0  0  0
   -3.4941    0.9821    0.1283 C   0  0  2  0  0  0  0  0  0  0  0  0
   -3.2646    0.1275    1.3408 C   0  0  0  0  0  0  0  0  0  0  0  0
   -2.1522   -0.7463    1.0878 N   0  0  0  0  0  0  0  0  0  0  0  0
   -0.8039   -0.3433    0.9332 C   0  0  0  0  0  0  0  0  0  0  0  0
    0.1041   -1.2724    0.4633 C   0  0  0  0  0  0  0  0  0  0  0  0
    1.4209   -0.9564    0.3037 C   0  0  0  0  0  0  0  0  0  0  0  0
    1.8939    0.2871    0.6009 C   0  0  0  0  0  0  0  0  0  0  0  0
    3.3128    0.6610    0.4388 C   0  0  0  0  0  0  0  0  0  0  0  0
    3.7084    1.8271    0.7317 O   0  0  0  0  0  0  0  0  0  0  0  0
    4.3006   -0.2303   -0.0408 N   0  0  0  0  0  0  0  0  0  0  0  0
    5.7108    0.2050   -0.1817 C   0  0  1  0  0  0  0  0  0  0  0  0
    6.5897   -0.5967    0.6892 C   0  0  0  0  0  0  0  0  0  0  0  0
    8.0269   -0.2198    0.5846 C   0  0  0  0  0  0  0  0  0  0  0  0
    8.6697   -0.4668   -0.7119 C   0  0  0  0  0  0  0  0  0  0  0  0
    9.6226    0.2749   -1.1232 O   0  0  0  0  0  0  0  0  0  0  0  0
    8.3025   -1.5141   -1.5810 O   0  0  0  0  0  0  0  0  0  0  0  0
    5.9951    0.1593   -1.6077 C   0  0  0  0  0  0  0  0  0  0  0  0
    5.4338   -0.6875   -2.3404 O   0  0  0  0  0  0  0  0  0  0  0  0
    6.8821    1.0478   -2.1868 O   0  0  0  0  0  0  0  0  0  0  0  0
    0.9780    1.2126    1.0715 C   0  0  0  0  0  0  0  0  0  0  0  0
   -0.3595    0.9238    1.2440 C   0  0  0  0  0  0  0  0  0  0  0  0
   -4.7006    1.7656    0.3856 N   0  0  0  0  0  0  0  0  0  0  0  0
  -10.0368   -1.1005   -0.5664 H   0  0  0  0  0  0  0  0  0  0  0  0
   -9.9165   -1.4185    1.1892 H   0  0  0  0  0  0  0  0  0  0  0  0
   -7.2389   -1.7997   -0.6681 H   0  0  0  0  0  0  0  0  0  0  0  0
   -4.8717   -1.7938   -0.9867 H   0  0  0  0  0  0  0  0  0  0  0  0
   -4.1975    0.8474   -1.8730 H   0  0  0  0  0  0  0  0  0  0  0  0
   -2.9284   -0.3452   -1.5259 H   0  0  0  0  0  0  0  0  0  0  0  0
   -2.6333    1.6013   -0.0987 H   0  0  0  0  0  0  0  0  0  0  0  0
   -4.1846   -0.4286    1.6123 H   0  0  0  0  0  0  0  0  0  0  0  0
   -3.0355    0.7950    2.2053 H   0  0  0  0  0  0  0  0  0  0  0  0
   -2.4006   -1.7780    1.0173 H   0  0  0  0  0  0  0  0  0  0  0  0
   -0.2320   -2.2723    0.2155 H   0  0  0  0  0  0  0  0  0  0  0  0
    2.0970   -1.6995   -0.0624 H   0  0  0  0  0  0  0  0  0  0  0  0
    4.0388   -1.2014   -0.2981 H   0  0  0  0  0  0  0  0  0  0  0  0
    5.7970    1.2692    0.1426 H   0  0  0  0  0  0  0  0  0  0  0  0
    6.2902   -0.5007    1.7651 H   0  0  0  0  0  0  0  0  0  0  0  0
    6.5072   -1.6745    0.3759 H   0  0  0  0  0  0  0  0  0  0  0  0
    8.1691    0.8865    0.7949 H   0  0  0  0  0  0  0  0  0  0  0  0
    8.6095   -0.7327    1.3942 H   0  0  0  0  0  0  0  0  0  0  0  0
    9.0739   -2.0116   -2.0471 H   0  0  0  0  0  0  0  0  0  0  0  0
    7.3626    0.8534   -3.0787 H   0  0  0  0  0  0  0  0  0  0  0  0
    1.3178    2.2213    1.3212 H   0  0  0  0  0  0  0  0  0  0  0  0
   -1.0560    1.6853    1.6303 H   0  0  0  0  0  0  0  0  0  0  0  0
   -4.6883    2.7807    0.5708 H   0  0  0  0  0  0  0  0  0  0  0  0
  1  2  1  0
  2  3  2  0
  3  4  1  0
  4  5  2  0
  4  6  1  0
  6  7  2  0
  7  8  1  0
  7  9  1  0
  9 10  1  0
 10 11  1  0
 11 12  1  0
 12 13  1  0
 13 14  1  0
 14 15  2  0
 15 16  1  0
 16 17  2  0
 17 18  1  0
 18 19  2  0
 18 20  1  0
 20 21  1  0
 21 22  1  0
 22 23  1  0
 23 24  1  0
 24 25  2  0
 24 26  1  0
 21 27  1  0
 27 28  2  0
 27 29  1  0
 17 30  1  0
 30 31  2  0
 11 32  1  0
  8  2  1  0
 31 14  1  0
 32  6  1  0
  1 33  1  0
  1 34  1  0
  8 35  1  0
  9 36  1  0
 10 37  1  0
 10 38  1  0
 11 39  1  6
 12 40  1  0
 12 41  1  0
 13 42  1  0
 15 43  1  0
 16 44  1  0
 20 45  1  0
 21 46  1  1
 22 47  1  0
 22 48  1  0
 23 49  1  0
 23 50  1  0
 26 51  1  0
 29 52  1  0
 30 53  1  0
 31 54  1  0
 32 55  1  0
M  END
$$$$

     RDKit          3D

 55 57  0  0  0  0  0  0  0  0999 V2000
    8.5507   -2.2958    0.5878 N   0  0  0  0  0  0  0  0  0  0  0  0
    7.7120   -1.2529    0.1442 C   0  0  0  0  0  0  0  0  0  0  0  0
    7.5913   -0.9085   -1.1525 N   0  0  0  0  0  0  0  0  0  0  0  0
    6.7722    0.0973   -1.4943 C   0  0  0  0  0  0  0  0  0  0  0  0
    6.6436    0.4382   -2.7111 O   0  0  0  0  0  0  0  0  0  0  0  0
    6.0422    0.7994   -0.5619 C   0  0  0  0  0  0  0  0  0  0  0  0
    6.1774    0.4342    0.7584 C   0  0  0  0  0  0  0  0  0  0  0  0
    7.0037   -0.5763    1.0764 N   0  0  0  0  0  0  0  0  0  0  0  0
    5.4195    1.1652    1.6971 N   0  0  0  0  0  0  0  0  0  0  0  0
    4.2026    1.8646    1.3816 C   0  0  0  0  0  0  0  0  0  0  0  0
    4.0260    2.1738   -0.0725 C   0  0  2  0  0  0  0  0  0  0  0  0
    2.8534    1.3306   -0.5930 C   0  0  0  0  0  0  0  0  0  0  0  0
    1.6435    1.6435    0.1167 N   0  0  0  0  0  0  0  0  0  0  0  0
    0.3940    1.0356   -0.1639 C   0  0  0  0  0  0  0  0  0  0  0  0
   -0.7427    1.3500    0.5404 C   0  0  0  0  0  0  0  0  0  0  0  0
   -1.9717    0.7462    0.2517 C   0  0  0  0  0  0  0  0  0  0  0  0
   -2.0568   -0.1875   -0.7609 C   0  0  0  0  0  0  0  0  0  0  0  0
   -3.2881   -0.8603   -1.1270 C   0  0  0  0  0  0  0  0  0  0  0  0
   -3.2765   -1.6310   -2.1091 O   0  0  0  0  0  0  0  0  0  0  0  0
   -4.4928   -0.6863   -0.4298 N   0  0  0  0  0  0  0  0  0  0  0  0
   -5.7449   -1.3340   -0.7593 C   0  0  1  0  0  0  0  0  0  0  0  0
   -6.2385   -2.2618    0.2776 C   0  0  0  0  0  0  0  0  0  0  0  0
   -6.4995   -1.7034    1.6317 C   0  0  0  0  0  0  0  0  0  0  0  0
   -7.5286   -0.6496    1.6704 C   0  0  0  0  0  0  0  0  0  0  0  0
   -8.7307   -0.9915    1.4934 O   0  0  0  0  0  0  0  0  0  0  0  0
   -7.2871    0.6985    1.8880 O   0  0  0  0  0  0  0  0  0  0  0  0
   -6.7385   -0.3006   -1.0892 C   0  0  0  0  0  0  0  0  0  0  0  0
   -6.4363    0.9080   -1.0492 O   0  0  0  0  0  0  0  0  0  0  0  0
   -8.0587   -0.5860   -1.4634 O   0  0  0  0  0  0  0  0  0  0  0  0
   -0.9074   -0.4912   -1.4571 C   0  0  0  0  0  0  0  0  0  0  0  0
    0.3060    0.0990   -1.1785 C   0  0  0  0  0  0  0  0  0  0  0  0
    5.1763    1.8646   -0.8830 N   0  0  0  0  0  0  0  0  0  0  0  0
    8.2159   -3.2663    0.7477 H   0  0  0  0  0  0  0  0  0  0  0  0
    9.5539   -2.0889    0.7654 H   0  0  0  0  0  0  0  0  0  0  0  0
    7.0972   -0.8450    2.1023 H   0  0  0  0  0  0  0  0  0  0  0  0
    5.7821    1.1902    2.6937 H   0  0  0  0  0  0  0  0  0  0  0  0
    3.3668    1.1715    1.6905 H   0  0  0  0  0  0  0  0  0  0  0  0
    4.0642    2.7691    2.0263 H   0  0  0  0  0  0  0  0  0  0  0  0
    3.7798    3.2615   -0.1874 H   0  0  0  0  0  0  0  0  0  0  0  0
    2.8110    1.4722   -1.6714 H   0  0  0  0  0  0  0  0  0  0  0  0
    3.1604    0.2645   -0.4191 H   0  0  0  0  0  0  0  0  0  0  0  0
    1.6783    2.3529    0.8780 H   0  0  0  0  0  0  0  0  0  0  0  0
   -0.6974    2.0818    1.3406 H   0  0  0  0  0  0  0  0  0  0  0  0
   -2.8416    1.0128    0.8192 H   0  0  0  0  0  0  0  0  0  0  0  0
   -4.5065   -0.0467    0.3899 H   0  0  0  0  0  0  0  0  0  0  0  0
   -5.5530   -1.9611   -1.6800 H   0  0  0  0  0  0  0  0  0  0  0  0
   -5.6251   -3.2117    0.3460 H   0  0  0  0  0  0  0  0  0  0  0  0
   -7.2291   -2.6618   -0.1066 H   0  0  0  0  0  0  0  0  0  0  0  0
   -5.5820   -1.2549    2.0969 H   0  0  0  0  0  0  0  0  0  0  0  0
   -6.8716   -2.5041    2.3397 H   0  0  0  0  0  0  0  0  0  0  0  0
   -7.9944    1.3135    2.3028 H   0  0  0  0  0  0  0  0  0  0  0  0
   -8.8437   -0.0628   -1.0899 H   0  0  0  0  0  0  0  0  0  0  0  0
   -0.9064   -1.2211   -2.2697 H   0  0  0  0  0  0  0  0  0  0  0  0
    1.2213   -0.1280   -1.7166 H   0  0  0  0  0  0  0  0  0  0  0  0
    5.4043    2.4302   -1.7497 H   0  0  0  0  0  0  0  0  0  0  0  0
  1  2  1  0
  2  3  2  0
  3  4  1  0
  4  5  2  0
  4  6  1  0
  6  7  2  0
  7  8  1  0
  7  9  1  0
  9 10  1  0
 10 11  1  0
 11 12  1  0
 12 13  1  0
 13 14  1  0
 14 15  2  0
 15 16  1  0
 16 17  2  0
 17 18  1  0
 18 19  2  0
 18 20  1  0
 20 21  1  0
 21 22  1  0
 22 23  1  0
 23 24  1  0
 24 25  2  0
 24 26  1  0
 21 27  1  0
 27 28  2  0
 27 29  1  0
 17 30  1  0
 30 31  2  0
 11 32  1  0
  8  2  1  0
 31 14  1  0
 32  6  1  0
  1 33  1  0
  1 34  1  0
  8 35  1  0
  9 36  1  0
 10 37  1  0
 10 38  1  0
 11 39  1  1
 12 40  1  0
 12 41  1  0
 13 42  1  0
 15 43  1  0
 16 44  1  0
 20 45  1  0
 21 46  1  6
 22 47  1  0
 22 48  1  0
 23 49  1  0
 23 50  1  0
 26 51  1  0
 29 52  1  0
 30 53  1  0
 31 54  1  0
 32 55  1  0
M  END
$$$$

     RDKit          3D

 55 57  0  0  0  0  0  0  0  0999 V2000
   10.0105   -0.2580    0.5189 N   0  0  0  0  0  0  0  0  0  0  0  0
    8.6122   -0.4065    0.3647 C   0  0  0  0  0  0  0  0  0  0  0  0
    8.0328   -1.6011    0.4564 N   0  0  0  0  0  0  0  0  0  0  0  0
    6.7103   -1.7235    0.3079 C   0  0  0  0  0  0  0  0  0  0  0  0
    6.1236   -2.8442    0.3886 O   0  0  0  0  0  0  0  0  0  0  0  0
    5.9108   -0.6475    0.0603 C   0  0  0  0  0  0  0  0  0  0  0  0
    6.5339    0.5882   -0.0316 C   0  0  0  0  0  0  0  0  0  0  0  0
    7.8647    0.6755    0.1227 N   0  0  0  0  0  0  0  0  0  0  0  0
    5.7049    1.7176   -0.2900 N   0  0  0  0  0  0  0  0  0  0  0  0
    4.2692    1.6024   -0.0765 C   0  0  0  0  0  0  0  0  0  0  0  0
    3.8249    0.3340   -0.7669 C   0  0  2  0  0  0  0  0  0  0  0  0
    2.3225    0.1663   -0.7542 C   0  0  0  0  0  0  0  0  0  0  0  0
    1.8008    0.1114    0.5765 N   0  0  0  0  0  0  0  0  0  0  0  0
    0.4061   -0.0429    0.8172 C   0  0  0  0  0  0  0  0  0  0  0  0
   -0.4436   -0.1392   -0.2608 C   0  0  0  0  0  0  0  0  0  0  0  0
   -1.7914   -0.2883   -0.0132 C   0  0  0  0  0  0  0  0  0  0  0  0
   -2.3132   -0.3437    1.2585 C   0  0  0  0  0  0  0  0  0  0  0  0
   -3.7370   -0.5012    1.5017 C   0  0  0  0  0  0  0  0  0  0  0  0
   -4.1535   -0.5407    2.7101 O   0  0  0  0  0  0  0  0  0  0  0  0
   -4.7115   -0.6157    0.4869 N   0  0  0  0  0  0  0  0  0  0  0  0
   -6.1376   -0.7729    0.8103 C   0  0  1  0  0  0  0  0  0  0  0  0
   -6.9109    0.4052    0.2881 C   0  0  0  0  0  0  0  0  0  0  0  0
   -6.8118    0.5796   -1.1930 C   0  0  0  0  0  0  0  0  0  0  0  0
   -7.6181    1.7728   -1.5672 C   0  0  0  0  0  0  0  0  0  0  0  0
   -8.2504    2.4721   -0.7344 O   0  0  0  0  0  0  0  0  0  0  0  0
   -7.6917    2.1542   -2.8999 O   0  0  0  0  0  0  0  0  0  0  0  0
   -6.6212   -2.0642    0.2960 C   0  0  0  0  0  0  0  0  0  0  0  0
   -5.8812   -2.8728   -0.3203 O   0  0  0  0  0  0  0  0  0  0  0  0
   -7.9409   -2.4553    0.4714 O   0  0  0  0  0  0  0  0  0  0  0  0
   -1.4253   -0.2432    2.2969 C   0  0  0  0  0  0  0  0  0  0  0  0
   -0.0682   -0.0930    2.1092 C   0  0  0  0  0  0  0  0  0  0  0  0
    4.4908   -0.7683   -0.1009 N   0  0  0  0  0  0  0  0  0  0  0  0
   10.5391    0.4597   -0.0172 H   0  0  0  0  0  0  0  0  0  0  0  0
   10.5007   -0.8887    1.1863 H   0  0  0  0  0  0  0  0  0  0  0  0
    8.3233    1.6321    0.0487 H   0  0  0  0  0  0  0  0  0  0  0  0
    6.1484    2.6058   -0.6280 H   0  0  0  0  0  0  0  0  0  0  0  0
    3.7411    2.4792   -0.4976 H   0  0  0  0  0  0  0  0  0  0  0  0
    4.0541    1.4762    1.0194 H   0  0  0  0  0  0  0  0  0  0  0  0
    4.2296    0.3719   -1.7961 H   0  0  0  0  0  0  0  0  0  0  0  0
    2.0981   -0.7351   -1.3610 H   0  0  0  0  0  0  0  0  0  0  0  0
    1.9123    1.0306   -1.3420 H   0  0  0  0  0  0  0  0  0  0  0  0
    2.4681    0.1872    1.3789 H   0  0  0  0  0  0  0  0  0  0  0  0
   -0.0652   -0.0992   -1.2954 H   0  0  0  0  0  0  0  0  0  0  0  0
   -2.4234   -0.3601   -0.8990 H   0  0  0  0  0  0  0  0  0  0  0  0
   -4.3918   -0.5858   -0.5086 H   0  0  0  0  0  0  0  0  0  0  0  0
   -6.2196   -0.7745    1.9155 H   0  0  0  0  0  0  0  0  0  0  0  0
   -7.9858    0.3341    0.5481 H   0  0  0  0  0  0  0  0  0  0  0  0
   -6.5385    1.3308    0.7652 H   0  0  0  0  0  0  0  0  0  0  0  0
   -7.2170   -0.2735   -1.7660 H   0  0  0  0  0  0  0  0  0  0  0  0
   -5.7739    0.7881   -1.5406 H   0  0  0  0  0  0  0  0  0  0  0  0
   -8.1328    3.0069   -3.2210 H   0  0  0  0  0  0  0  0  0  0  0  0
   -8.2047   -3.4257    0.6827 H   0  0  0  0  0  0  0  0  0  0  0  0
   -1.8104   -0.2840    3.2972 H   0  0  0  0  0  0  0  0  0  0  0  0
    0.5968   -0.0175    2.9774 H   0  0  0  0  0  0  0  0  0  0  0  0
    4.0411   -1.6157    0.2604 H   0  0  0  0  0  0  0  0  0  0  0  0
  1  2  1  0
  2  3  2  0
  3  4  1  0
  4  5  2  0
  4  6  1  0
  6  7  2  0
  7  8  1  0
  7  9  1  0
  9 10  1  0
 10 11  1  0
 11 12  1  0
 12 13  1  0
 13 14  1  0
 14 15  2  0
 15 16  1  0
 16 17  2  0
 17 18  1  0
 18 19  2  0
 18 20  1  0
 20 21  1  0
 21 22  1  0
 22 23  1  0
 23 24  1  0
 24 25  2  0
 24 26  1  0
 21 27  1  0
 27 28  2  0
 27 29  1  0
 17 30  1  0
 30 31  2  0
 11 32  1  0
  8  2  1  0
 31 14  1  0
 32  6  1  0
  1 33  1  0
  1 34  1  0
  8 35  1  0
  9 36  1  0
 10 37  1  0
 10 38  1  0
 11 39  1  6
 12 40  1  0
 12 41  1  0
 13 42  1  0
 15 43  1  0
 16 44  1  0
 20 45  1  0
 21 46  1  1
 22 47  1  0
 22 48  1  0
 23 49  1  0
 23 50  1  0
 26 51  1  0
 29 52  1  0
 30 53  1  0
 31 54  1  0
 32 55  1  0
M  END
$$$$

     RDKit          3D

 55 57  0  0  0  0  0  0  0  0999 V2000
    7.2955   -2.3655    1.0628 N   0  0  0  0  0  0  0  0  0  0  0  0
    6.5963   -1.5301    0.1516 C   0  0  0  0  0  0  0  0  0  0  0  0
    6.0431   -2.0438   -0.9680 N   0  0  0  0  0  0  0  0  0  0  0  0
    5.3894   -1.2342   -1.8104 C   0  0  0  0  0  0  0  0  0  0  0  0
    4.8576   -1.6571   -2.8631 O   0  0  0  0  0  0  0  0  0  0  0  0
    5.2857    0.1239   -1.5269 C   0  0  0  0  0  0  0  0  0  0  0  0
    5.8573    0.6288   -0.3788 C   0  0  0  0  0  0  0  0  0  0  0  0
    6.5105   -0.2218    0.4489 N   0  0  0  0  0  0  0  0  0  0  0  0
    5.7462    2.0142   -0.0996 N   0  0  0  0  0  0  0  0  0  0  0  0
    5.2008    2.9771   -1.0344 C   0  0  0  0  0  0  0  0  0  0  0  0
    4.1275    2.2764   -1.8678 C   0  0  2  0  0  0  0  0  0  0  0  0
    2.9803    1.9878   -0.9236 C   0  0  0  0  0  0  0  0  0  0  0  0
    1.9413    1.3230   -1.6751 N   0  0  0  0  0  0  0  0  0  0  0  0
    0.7538    0.9537   -0.9999 C   0  0  0  0  0  0  0  0  0  0  0  0
   -0.2792    0.3099   -1.6442 C   0  0  0  0  0  0  0  0  0  0  0  0
   -1.4524   -0.0524   -0.9706 C   0  0  0  0  0  0  0  0  0  0  0  0
   -1.6100    0.2270    0.3691 C   0  0  0  0  0  0  0  0  0  0  0  0
   -2.8195   -0.1330    1.1215 C   0  0  0  0  0  0  0  0  0  0  0  0
   -2.8707    0.2301    2.3466 O   0  0  0  0  0  0  0  0  0  0  0  0
   -3.8995   -0.8480    0.5532 N   0  0  0  0  0  0  0  0  0  0  0  0
   -5.0536   -1.1477    1.4083 C   0  0  1  0  0  0  0  0  0  0  0  0
   -6.3089   -0.5533    0.8095 C   0  0  0  0  0  0  0  0  0  0  0  0
   -7.5241   -0.8251    1.6523 C   0  0  0  0  0  0  0  0  0  0  0  0
   -8.7066   -0.2120    1.0242 C   0  0  0  0  0  0  0  0  0  0  0  0
   -9.8269   -0.3175    1.5615 O   0  0  0  0  0  0  0  0  0  0  0  0
   -8.5754    0.4780   -0.1566 O   0  0  0  0  0  0  0  0  0  0  0  0
   -5.0909   -2.6257    1.5104 C   0  0  0  0  0  0  0  0  0  0  0  0
   -4.2511   -3.3729    0.9025 O   0  0  0  0  0  0  0  0  0  0  0  0
   -6.0283   -3.3098    2.2664 O   0  0  0  0  0  0  0  0  0  0  0  0
   -0.5616    0.8720    0.9908 C   0  0  0  0  0  0  0  0  0  0  0  0
    0.6046    1.2358    0.3354 C   0  0  0  0  0  0  0  0  0  0  0  0
    4.6062    1.0167   -2.3873 N   0  0  0  0  0  0  0  0  0  0  0  0
    6.7968   -3.1476    1.5256 H   0  0  0  0  0  0  0  0  0  0  0  0
    8.3080   -2.1540    1.2347 H   0  0  0  0  0  0  0  0  0  0  0  0
    6.9336    0.1787    1.3078 H   0  0  0  0  0  0  0  0  0  0  0  0
    6.0711    2.3745    0.8259 H   0  0  0  0  0  0  0  0  0  0  0  0
    4.6757    3.7719   -0.4520 H   0  0  0  0  0  0  0  0  0  0  0  0
    5.9742    3.4413   -1.6595 H   0  0  0  0  0  0  0  0  0  0  0  0
    3.7920    2.9568   -2.6785 H   0  0  0  0  0  0  0  0  0  0  0  0
    3.3404    1.3637   -0.0715 H   0  0  0  0  0  0  0  0  0  0  0  0
    2.5913    2.9193   -0.4591 H   0  0  0  0  0  0  0  0  0  0  0  0
    2.0755    1.1208   -2.7106 H   0  0  0  0  0  0  0  0  0  0  0  0
   -0.1874    0.0712   -2.7138 H   0  0  0  0  0  0  0  0  0  0  0  0
   -2.2549   -0.5615   -1.5058 H   0  0  0  0  0  0  0  0  0  0  0  0
   -3.8588   -1.1420   -0.4353 H   0  0  0  0  0  0  0  0  0  0  0  0
   -4.8455   -0.7185    2.4036 H   0  0  0  0  0  0  0  0  0  0  0  0
   -6.1596    0.5635    0.8519 H   0  0  0  0  0  0  0  0  0  0  0  0
   -6.4416   -0.7965   -0.2422 H   0  0  0  0  0  0  0  0  0  0  0  0
   -7.4008   -0.4371    2.6954 H   0  0  0  0  0  0  0  0  0  0  0  0
   -7.7572   -1.9060    1.7769 H   0  0  0  0  0  0  0  0  0  0  0  0
   -9.2964    1.1644   -0.4180 H   0  0  0  0  0  0  0  0  0  0  0  0
   -6.4415   -4.1883    1.9524 H   0  0  0  0  0  0  0  0  0  0  0  0
   -0.6805    1.0989    2.0632 H   0  0  0  0  0  0  0  0  0  0  0  0
    1.3781    1.7317    0.8707 H   0  0  0  0  0  0  0  0  0  0  0  0
    4.4501    0.7801   -3.3709 H   0  0  0  0  0  0  0  0  0  0  0  0
  1  2  1  0
  2  3  2  0
  3  4  1  0
  4  5  2  0
  4  6  1  0
  6  7  2  0
  7  8  1  0
  7  9  1  0
  9 10  1  0
 10 11  1  0
 11 12  1  0
 12 13  1  0
 13 14  1  0
 14 15  2  0
 15 16  1  0
 16 17  2  0
 17 18  1  0
 18 19  2  0
 18 20  1  0
 20 21  1  0
 21 22  1  0
 22 23  1  0
 23 24  1  0
 24 25  2  0
 24 26  1  0
 21 27  1  0
 27 28  2  0
 27 29  1  0
 17 30  1  0
 30 31  2  0
 11 32  1  0
  8  2  1  0
 31 14  1  0
 32  6  1  0
  1 33  1  0
  1 34  1  0
  8 35  1  0
  9 36  1  0
 10 37  1  0
 10 38  1  0
 11 39  1  6
 12 40  1  0
 12 41  1  0
 13 42  1  0
 15 43  1  0
 16 44  1  0
 20 45  1  0
 21 46  1  1
 22 47  1  0
 22 48  1  0
 23 49  1  0
 23 50  1  0
 26 51  1  0
 29 52  1  0
 30 53  1  0
 31 54  1  0
 32 55  1  0
M  END
$$$$

     RDKit          3D

 55 57  0  0  0  0  0  0  0  0999 V2000
    7.7124    2.5042   -2.4012 N   0  0  0  0  0  0  0  0  0  0  0  0
    6.7923    1.6307   -1.7885 C   0  0  0  0  0  0  0  0  0  0  0  0
    6.3108    0.5389   -2.4060 N   0  0  0  0  0  0  0  0  0  0  0  0
    5.4445   -0.3050   -1.8602 C   0  0  0  0  0  0  0  0  0  0  0  0
    4.9884   -1.3281   -2.4287 O   0  0  0  0  0  0  0  0  0  0  0  0
    5.0035   -0.0519   -0.5734 C   0  0  0  0  0  0  0  0  0  0  0  0
    5.4903    1.0656    0.0714 C   0  0  0  0  0  0  0  0  0  0  0  0
    6.3739    1.8908   -0.5377 N   0  0  0  0  0  0  0  0  0  0  0  0
    5.0294    1.3164    1.3982 N   0  0  0  0  0  0  0  0  0  0  0  0
    4.5889    0.1878    2.1822 C   0  0  0  0  0  0  0  0  0  0  0  0
    3.5198   -0.5326    1.4033 C   0  0  2  0  0  0  0  0  0  0  0  0
    3.1231   -1.8398    2.0435 C   0  0  0  0  0  0  0  0  0  0  0  0
    2.0964   -2.4526    1.2346 N   0  0  0  0  0  0  0  0  0  0  0  0
    0.7894   -1.9157    1.1014 C   0  0  0  0  0  0  0  0  0  0  0  0
   -0.0579   -2.4175    0.1031 C   0  0  0  0  0  0  0  0  0  0  0  0
   -1.3413   -1.8821    0.0062 C   0  0  0  0  0  0  0  0  0  0  0  0
   -1.7553   -0.8965    0.8628 C   0  0  0  0  0  0  0  0  0  0  0  0
   -3.0924   -0.3311    0.7646 C   0  0  0  0  0  0  0  0  0  0  0  0
   -3.5163    0.5017    1.6415 O   0  0  0  0  0  0  0  0  0  0  0  0
   -3.9810   -0.6621   -0.2833 N   0  0  0  0  0  0  0  0  0  0  0  0
   -5.3322   -0.0455   -0.3182 C   0  0  1  0  0  0  0  0  0  0  0  0
   -5.3550    0.6905   -1.6390 C   0  0  0  0  0  0  0  0  0  0  0  0
   -6.6305    1.4000   -1.8954 C   0  0  0  0  0  0  0  0  0  0  0  0
   -6.9060    2.4115   -0.8594 C   0  0  0  0  0  0  0  0  0  0  0  0
   -6.1700    2.6976    0.1073 O   0  0  0  0  0  0  0  0  0  0  0  0
   -8.1082    3.1366   -0.9478 O   0  0  0  0  0  0  0  0  0  0  0  0
   -6.3554   -1.1110   -0.3353 C   0  0  0  0  0  0  0  0  0  0  0  0
   -5.9893   -2.3096   -0.3686 O   0  0  0  0  0  0  0  0  0  0  0  0
   -7.6999   -0.8240   -0.3135 O   0  0  0  0  0  0  0  0  0  0  0  0
   -0.9181   -0.3913    1.8599 C   0  0  0  0  0  0  0  0  0  0  0  0
    0.3538   -0.9249    1.9529 C   0  0  0  0  0  0  0  0  0  0  0  0
    4.0873   -0.8766    0.1044 N   0  0  0  0  0  0  0  0  0  0  0  0
    8.7412    2.4234   -2.2647 H   0  0  0  0  0  0  0  0  0  0  0  0
    7.3574    3.2568   -3.0116 H   0  0  0  0  0  0  0  0  0  0  0  0
    6.7095    2.7283    0.0061 H   0  0  0  0  0  0  0  0  0  0  0  0
    5.0334    2.3010    1.7368 H   0  0  0  0  0  0  0  0  0  0  0  0
    5.4300   -0.5214    2.3662 H   0  0  0  0  0  0  0  0  0  0  0  0
    4.2494    0.5505    3.1621 H   0  0  0  0  0  0  0  0  0  0  0  0
    2.6834    0.1615    1.2415 H   0  0  0  0  0  0  0  0  0  0  0  0
    2.7620   -1.6475    3.0850 H   0  0  0  0  0  0  0  0  0  0  0  0
    3.9920   -2.5177    2.1528 H   0  0  0  0  0  0  0  0  0  0  0  0
    2.3400   -3.3342    0.7273 H   0  0  0  0  0  0  0  0  0  0  0  0
    0.2674   -3.1830   -0.5601 H   0  0  0  0  0  0  0  0  0  0  0  0
   -1.9867   -2.2731   -0.7619 H   0  0  0  0  0  0  0  0  0  0  0  0
   -3.7216   -1.3340   -1.0488 H   0  0  0  0  0  0  0  0  0  0  0  0
   -5.3995    0.5987    0.5571 H   0  0  0  0  0  0  0  0  0  0  0  0
   -4.4561    1.3625   -1.7332 H   0  0  0  0  0  0  0  0  0  0  0  0
   -5.1929   -0.1105   -2.4168 H   0  0  0  0  0  0  0  0  0  0  0  0
   -7.4525    0.6635   -1.9972 H   0  0  0  0  0  0  0  0  0  0  0  0
   -6.5140    1.9148   -2.8938 H   0  0  0  0  0  0  0  0  0  0  0  0
   -8.5390    3.5078   -0.1066 H   0  0  0  0  0  0  0  0  0  0  0  0
   -8.4128   -1.4728    0.0067 H   0  0  0  0  0  0  0  0  0  0  0  0
   -1.2254    0.3832    2.5429 H   0  0  0  0  0  0  0  0  0  0  0  0
    1.0161   -0.5603    2.7194 H   0  0  0  0  0  0  0  0  0  0  0  0
    3.8231   -1.7716   -0.3764 H   0  0  0  0  0  0  0  0  0  0  0  0
  1  2  1  0
  2  3  2  0
  3  4  1  0
  4  5  2  0
  4  6  1  0
  6  7  2  0
  7  8  1  0
  7  9  1  0
  9 10  1  0
 10 11  1  0
 11 12  1  0
 12 13  1  0
 13 14  1  0
 14 15  2  0
 15 16  1  0
 16 17  2  0
 17 18  1  0
 18 19  2  0
 18 20  1  0
 20 21  1  0
 21 22  1  0
 22 23  1  0
 23 24  1  0
 24 25  2  0
 24 26  1  0
 21 27  1  0
 27 28  2  0
 27 29  1  0
 17 30  1  0
 30 31  2  0
 11 32  1  0
  8  2  1  0
 31 14  1  0
 32  6  1  0
  1 33  1  0
  1 34  1  0
  8 35  1  0
  9 36  1  0
 10 37  1  0
 10 38  1  0
 11 39  1  6
 12 40  1  0
 12 41  1  0
 13 42  1  0
 15 43  1  0
 16 44  1  0
 20 45  1  0
 21 46  1  1
 22 47  1  0
 22 48  1  0
 23 49  1  0
 23 50  1  0
 26 51  1  0
 29 52  1  0
 30 53  1  0
 31 54  1  0
 32 55  1  0
M  END
$$$$

     RDKit          3D

 55 57  0  0  0  0  0  0  0  0999 V2000
    8.9131    1.8501   -0.3555 N   0  0  0  0  0  0  0  0  0  0  0  0
    7.7402    1.2196    0.1247 C   0  0  0  0  0  0  0  0  0  0  0  0
    7.0238    1.7791    1.1139 N   0  0  0  0  0  0  0  0  0  0  0  0
    5.9001    1.2134    1.6021 C   0  0  0  0  0  0  0  0  0  0  0  0
    5.2272    1.7375    2.5303 O   0  0  0  0  0  0  0  0  0  0  0  0
    5.4792    0.0159    1.0586 C   0  0  0  0  0  0  0  0  0  0  0  0
    6.2063   -0.5693    0.0419 C   0  0  0  0  0  0  0  0  0  0  0  0
    7.3249    0.0538   -0.3998 N   0  0  0  0  0  0  0  0  0  0  0  0
    5.7501   -1.7918   -0.4920 N   0  0  0  0  0  0  0  0  0  0  0  0
    4.3258   -2.0873   -0.4757 C   0  0  0  0  0  0  0  0  0  0  0  0
    3.7447   -1.8201    0.8748 C   0  0  2  0  0  0  0  0  0  0  0  0
    2.2479   -1.5683    0.7667 C   0  0  0  0  0  0  0  0  0  0  0  0
    1.9977   -0.4042   -0.0954 N   0  0  0  0  0  0  0  0  0  0  0  0
    0.6607   -0.0002   -0.3169 C   0  0  0  0  0  0  0  0  0  0  0  0
    0.4244    1.0951   -1.1180 C   0  0  0  0  0  0  0  0  0  0  0  0
   -0.8548    1.5141   -1.3516 C   0  0  0  0  0  0  0  0  0  0  0  0
   -1.9252    0.8506   -0.7922 C   0  0  0  0  0  0  0  0  0  0  0  0
   -3.2919    1.3093   -1.0502 C   0  0  0  0  0  0  0  0  0  0  0  0
   -3.4432    2.2616   -1.8917 O   0  0  0  0  0  0  0  0  0  0  0  0
   -4.4385    0.7726   -0.4351 N   0  0  0  0  0  0  0  0  0  0  0  0
   -5.7902    1.2484   -0.7092 C   0  0  1  0  0  0  0  0  0  0  0  0
   -6.5428    0.2073   -1.4429 C   0  0  0  0  0  0  0  0  0  0  0  0
   -6.6923   -1.1336   -0.8653 C   0  0  0  0  0  0  0  0  0  0  0  0
   -7.3955   -1.2384    0.3920 C   0  0  0  0  0  0  0  0  0  0  0  0
   -7.9393   -0.2986    0.9918 O   0  0  0  0  0  0  0  0  0  0  0  0
   -7.5239   -2.4827    1.0686 O   0  0  0  0  0  0  0  0  0  0  0  0
   -6.4112    1.8898    0.4480 C   0  0  0  0  0  0  0  0  0  0  0  0
   -5.8422    1.8768    1.5687 O   0  0  0  0  0  0  0  0  0  0  0  0
   -7.6527    2.5319    0.3030 O   0  0  0  0  0  0  0  0  0  0  0  0
   -1.6655   -0.2394    0.0033 C   0  0  0  0  0  0  0  0  0  0  0  0
   -0.3817   -0.6918    0.2615 C   0  0  0  0  0  0  0  0  0  0  0  0
    4.3106   -0.6568    1.5056 N   0  0  0  0  0  0  0  0  0  0  0  0
    9.7338    1.2552   -0.5846 H   0  0  0  0  0  0  0  0  0  0  0  0
    8.9686    2.8702   -0.4803 H   0  0  0  0  0  0  0  0  0  0  0  0
    7.8506   -0.4355   -1.1837 H   0  0  0  0  0  0  0  0  0  0  0  0
    6.4568   -2.4517   -0.8864 H   0  0  0  0  0  0  0  0  0  0  0  0
    3.8692   -1.4445   -1.2668 H   0  0  0  0  0  0  0  0  0  0  0  0
    4.1532   -3.1418   -0.7724 H   0  0  0  0  0  0  0  0  0  0  0  0
    3.8764   -2.7433    1.4805 H   0  0  0  0  0  0  0  0  0  0  0  0
    1.7422   -2.4378    0.2821 H   0  0  0  0  0  0  0  0  0  0  0  0
    1.8296   -1.3455    1.7641 H   0  0  0  0  0  0  0  0  0  0  0  0
    2.7646    0.1213   -0.5393 H   0  0  0  0  0  0  0  0  0  0  0  0
    1.2457    1.6401   -1.5734 H   0  0  0  0  0  0  0  0  0  0  0  0
   -1.0481    2.3859   -1.9887 H   0  0  0  0  0  0  0  0  0  0  0  0
   -4.2920   -0.0136    0.2582 H   0  0  0  0  0  0  0  0  0  0  0  0
   -5.6036    2.0744   -1.5094 H   0  0  0  0  0  0  0  0  0  0  0  0
   -6.0912    0.1268   -2.4748 H   0  0  0  0  0  0  0  0  0  0  0  0
   -7.5996    0.5832   -1.6639 H   0  0  0  0  0  0  0  0  0  0  0  0
   -5.7097   -1.7104   -0.8498 H   0  0  0  0  0  0  0  0  0  0  0  0
   -7.3010   -1.7414   -1.6227 H   0  0  0  0  0  0  0  0  0  0  0  0
   -7.4642   -2.5052    2.0942 H   0  0  0  0  0  0  0  0  0  0  0  0
   -8.0241    3.1126    1.0699 H   0  0  0  0  0  0  0  0  0  0  0  0
   -2.4529   -0.8075    0.4734 H   0  0  0  0  0  0  0  0  0  0  0  0
   -0.2164   -1.5682    0.9034 H   0  0  0  0  0  0  0  0  0  0  0  0
    3.8264   -0.2674    2.3661 H   0  0  0  0  0  0  0  0  0  0  0  0
  1  2  1  0
  2  3  2  0
  3  4  1  0
  4  5  2  0
  4  6  1  0
  6  7  2  0
  7  8  1  0
  7  9  1  0
  9 10  1  0
 10 11  1  0
 11 12  1  0
 12 13  1  0
 13 14  1  0
 14 15  2  0
 15 16  1  0
 16 17  2  0
 17 18  1  0
 18 19  2  0
 18 20  1  0
 20 21  1  0
 21 22  1  0
 22 23  1  0
 23 24  1  0
 24 25  2  0
 24 26  1  0
 21 27  1  0
 27 28  2  0
 27 29  1  0
 17 30  1  0
 30 31  2  0
 11 32  1  0
  8  2  1  0
 31 14  1  0
 32  6  1  0
  1 33  1  0
  1 34  1  0
  8 35  1  0
  9 36  1  0
 10 37  1  0
 10 38  1  0
 11 39  1  1
 12 40  1  0
 12 41  1  0
 13 42  1  0
 15 43  1  0
 16 44  1  0
 20 45  1  0
 21 46  1  6
 22 47  1  0
 22 48  1  0
 23 49  1  0
 23 50  1  0
 26 51  1  0
 29 52  1  0
 30 53  1  0
 31 54  1  0
 32 55  1  0
M  END
$$$$

     RDKit          3D

 55 57  0  0  0  0  0  0  0  0999 V2000
    9.9982    0.4308    0.4568 N   0  0  0  0  0  0  0  0  0  0  0  0
    8.6379    0.1902    0.1380 C   0  0  0  0  0  0  0  0  0  0  0  0
    8.2199   -0.9624   -0.4293 N   0  0  0  0  0  0  0  0  0  0  0  0
    6.9224   -1.1689   -0.7219 C   0  0  0  0  0  0  0  0  0  0  0  0
    6.5391   -2.2601   -1.2587 O   0  0  0  0  0  0  0  0  0  0  0  0
    5.9424   -0.2318   -0.4659 C   0  0  0  0  0  0  0  0  0  0  0  0
    6.3792    0.9426    0.1140 C   0  0  0  0  0  0  0  0  0  0  0  0
    7.6952    1.1218    0.3970 N   0  0  0  0  0  0  0  0  0  0  0  0
    5.3981    1.9325    0.3937 N   0  0  0  0  0  0  0  0  0  0  0  0
    4.0150    1.5020    0.5120 C   0  0  0  0  0  0  0  0  0  0  0  0
    3.7060    0.7287   -0.7620 C   0  0  2  0  0  0  0  0  0  0  0  0
    2.2484    0.4072   -0.8838 C   0  0  0  0  0  0  0  0  0  0  0  0
    1.7556   -0.3902    0.1907 N   0  0  0  0  0  0  0  0  0  0  0  0
    0.3905   -0.7340    0.2727 C   0  0  0  0  0  0  0  0  0  0  0  0
   -0.0807   -1.5439    1.2791 C   0  0  0  0  0  0  0  0  0  0  0  0
   -1.4208   -1.8369    1.3288 C   0  0  0  0  0  0  0  0  0  0  0  0
   -2.3244   -1.3435    0.3928 C   0  0  0  0  0  0  0  0  0  0  0  0
   -3.7454   -1.7051    0.5225 C   0  0  0  0  0  0  0  0  0  0  0  0
   -4.0700   -2.6949    1.2409 O   0  0  0  0  0  0  0  0  0  0  0  0
   -4.7493   -0.9587   -0.1430 N   0  0  0  0  0  0  0  0  0  0  0  0
   -6.1428   -1.2968   -0.0241 C   0  0  1  0  0  0  0  0  0  0  0  0
   -6.8094   -0.2108    0.7918 C   0  0  0  0  0  0  0  0  0  0  0  0
   -6.6517    1.1284    0.1311 C   0  0  0  0  0  0  0  0  0  0  0  0
   -7.3234    2.1899    0.9492 C   0  0  0  0  0  0  0  0  0  0  0  0
   -8.5553    2.0763    1.2774 O   0  0  0  0  0  0  0  0  0  0  0  0
   -6.5497    3.2919    1.3308 O   0  0  0  0  0  0  0  0  0  0  0  0
   -6.7882   -1.4203   -1.3495 C   0  0  0  0  0  0  0  0  0  0  0  0
   -6.1855   -1.2423   -2.4245 O   0  0  0  0  0  0  0  0  0  0  0  0
   -8.1353   -1.7539   -1.3933 O   0  0  0  0  0  0  0  0  0  0  0  0
   -1.8635   -0.5440   -0.6045 C   0  0  0  0  0  0  0  0  0  0  0  0
   -0.4979   -0.2420   -0.6591 C   0  0  0  0  0  0  0  0  0  0  0  0
    4.5626   -0.4250   -0.7658 N   0  0  0  0  0  0  0  0  0  0  0  0
   10.2212    0.7292    1.4317 H   0  0  0  0  0  0  0  0  0  0  0  0
   10.8001    0.3344   -0.2005 H   0  0  0  0  0  0  0  0  0  0  0  0
    8.0046    2.0356    0.8407 H   0  0  0  0  0  0  0  0  0  0  0  0
    5.7138    2.9325    0.5021 H   0  0  0  0  0  0  0  0  0  0  0  0
    3.9191    0.7732    1.3441 H   0  0  0  0  0  0  0  0  0  0  0  0
    3.3344    2.3710    0.6526 H   0  0  0  0  0  0  0  0  0  0  0  0
    4.0303    1.3774   -1.6089 H   0  0  0  0  0  0  0  0  0  0  0  0
    1.7128    1.3792   -0.9902 H   0  0  0  0  0  0  0  0  0  0  0  0
    2.1237   -0.1049   -1.8870 H   0  0  0  0  0  0  0  0  0  0  0  0
    2.4000   -0.7276    0.9315 H   0  0  0  0  0  0  0  0  0  0  0  0
    0.6487   -1.9103    1.9885 H   0  0  0  0  0  0  0  0  0  0  0  0
   -1.7863   -2.4714    2.1158 H   0  0  0  0  0  0  0  0  0  0  0  0
   -4.4634   -0.1400   -0.7404 H   0  0  0  0  0  0  0  0  0  0  0  0
   -6.2460   -2.2381    0.5620 H   0  0  0  0  0  0  0  0  0  0  0  0
   -6.2995   -0.1970    1.7918 H   0  0  0  0  0  0  0  0  0  0  0  0
   -7.8715   -0.4318    0.9509 H   0  0  0  0  0  0  0  0  0  0  0  0
   -7.1176    1.0635   -0.8765 H   0  0  0  0  0  0  0  0  0  0  0  0
   -5.5951    1.3487    0.0129 H   0  0  0  0  0  0  0  0  0  0  0  0
   -7.0133    4.1058    1.7659 H   0  0  0  0  0  0  0  0  0  0  0  0
   -8.5482   -2.0575   -2.2566 H   0  0  0  0  0  0  0  0  0  0  0  0
   -2.5418   -0.1482   -1.3488 H   0  0  0  0  0  0  0  0  0  0  0  0
   -0.1926    0.3973   -1.4751 H   0  0  0  0  0  0  0  0  0  0  0  0
    4.2500   -1.3980   -0.9716 H   0  0  0  0  0  0  0  0  0  0  0  0
  1  2  1  0
  2  3  2  0
  3  4  1  0
  4  5  2  0
  4  6  1  0
  6  7  2  0
  7  8  1  0
  7  9  1  0
  9 10  1  0
 10 11  1  0
 11 12  1  0
 12 13  1  0
 13 14  1  0
 14 15  2  0
 15 16  1  0
 16 17  2  0
 17 18  1  0
 18 19  2  0
 18 20  1  0
 20 21  1  0
 21 22  1  0
 22 23  1  0
 23 24  1  0
 24 25  2  0
 24 26  1  0
 21 27  1  0
 27 28  2  0
 27 29  1  0
 17 30  1  0
 30 31  2  0
 11 32  1  0
  8  2  1  0
 31 14  1  0
 32  6  1  0
  1 33  1  0
  1 34  1  0
  8 35  1  0
  9 36  1  0
 10 37  1  0
 10 38  1  0
 11 39  1  6
 12 40  1  0
 12 41  1  0
 13 42  1  0
 15 43  1  0
 16 44  1  0
 20 45  1  0
 21 46  1  1
 22 47  1  0
 22 48  1  0
 23 49  1  0
 23 50  1  0
 26 51  1  0
 29 52  1  0
 30 53  1  0
 31 54  1  0
 32 55  1  0
M  END
$$$$

     RDKit          3D

 55 57  0  0  0  0  0  0  0  0999 V2000
   -7.5668    2.1840   -2.4205 N   0  0  0  0  0  0  0  0  0  0  0  0
   -6.8338    1.4069   -1.4537 C   0  0  0  0  0  0  0  0  0  0  0  0
   -7.4643    0.5409   -0.6411 N   0  0  0  0  0  0  0  0  0  0  0  0
   -6.7786   -0.1876    0.2661 C   0  0  0  0  0  0  0  0  0  0  0  0
   -7.3389   -1.0078    1.0427 O   0  0  0  0  0  0  0  0  0  0  0  0
   -5.4006   -0.0698    0.3930 C   0  0  0  0  0  0  0  0  0  0  0  0
   -4.7659    0.8172   -0.4415 C   0  0  0  0  0  0  0  0  0  0  0  0
   -5.5031    1.5319   -1.3432 N   0  0  0  0  0  0  0  0  0  0  0  0
   -3.3776    0.9557   -0.3308 N   0  0  0  0  0  0  0  0  0  0  0  0
   -2.5976    0.0019    0.4631 C   0  0  0  0  0  0  0  0  0  0  0  0
   -3.3324   -0.2996    1.7132 C   0  0  2  0  0  0  0  0  0  0  0  0
   -2.6819   -1.2016    2.6974 C   0  0  0  0  0  0  0  0  0  0  0  0
   -1.4264   -0.6890    3.1395 N   0  0  0  0  0  0  0  0  0  0  0  0
   -0.2206   -0.8360    2.4112 C   0  0  0  0  0  0  0  0  0  0  0  0
   -0.0834   -1.7466    1.3771 C   0  0  0  0  0  0  0  0  0  0  0  0
    1.0886   -1.8831    0.6736 C   0  0  0  0  0  0  0  0  0  0  0  0
    2.1853   -1.1130    0.9705 C   0  0  0  0  0  0  0  0  0  0  0  0
    3.4121   -1.3141    0.1800 C   0  0  0  0  0  0  0  0  0  0  0  0
    4.1282   -2.2777    0.5088 O   0  0  0  0  0  0  0  0  0  0  0  0
    3.7616   -0.4604   -0.8976 N   0  0  0  0  0  0  0  0  0  0  0  0
    4.8891   -0.5409   -1.7497 C   0  0  1  0  0  0  0  0  0  0  0  0
    6.0940    0.2618   -1.4838 C   0  0  0  0  0  0  0  0  0  0  0  0
    5.9545    1.7448   -1.4724 C   0  0  0  0  0  0  0  0  0  0  0  0
    5.1215    2.2589   -0.3920 C   0  0  0  0  0  0  0  0  0  0  0  0
    4.7588    1.5321    0.5487 O   0  0  0  0  0  0  0  0  0  0  0  0
    4.6831    3.5941   -0.3505 O   0  0  0  0  0  0  0  0  0  0  0  0
    5.2916   -1.9591   -2.0947 C   0  0  0  0  0  0  0  0  0  0  0  0
    4.6479   -2.9442   -1.7601 O   0  0  0  0  0  0  0  0  0  0  0  0
    6.4731   -2.0787   -2.8377 O   0  0  0  0  0  0  0  0  0  0  0  0
    2.0817   -0.1991    1.9924 C   0  0  0  0  0  0  0  0  0  0  0  0
    0.9001   -0.0723    2.6901 C   0  0  0  0  0  0  0  0  0  0  0  0
   -4.6618   -0.8232    1.3329 N   0  0  0  0  0  0  0  0  0  0  0  0
   -8.5741    2.4137   -2.3251 H   0  0  0  0  0  0  0  0  0  0  0  0
   -7.0597    2.5299   -3.2524 H   0  0  0  0  0  0  0  0  0  0  0  0
   -4.9868    2.1961   -1.9606 H   0  0  0  0  0  0  0  0  0  0  0  0
   -2.9096    1.7528   -0.8252 H   0  0  0  0  0  0  0  0  0  0  0  0
   -2.4279   -0.9364   -0.0995 H   0  0  0  0  0  0  0  0  0  0  0  0
   -1.6167    0.4788    0.7307 H   0  0  0  0  0  0  0  0  0  0  0  0
   -3.5780    0.6793    2.2089 H   0  0  0  0  0  0  0  0  0  0  0  0
   -3.3768   -1.2424    3.5915 H   0  0  0  0  0  0  0  0  0  0  0  0
   -2.6297   -2.2618    2.3617 H   0  0  0  0  0  0  0  0  0  0  0  0
   -1.3630   -0.1638    4.0630 H   0  0  0  0  0  0  0  0  0  0  0  0
   -0.9160   -2.3880    1.0906 H   0  0  0  0  0  0  0  0  0  0  0  0
    1.1608   -2.6126   -0.1367 H   0  0  0  0  0  0  0  0  0  0  0  0
    3.0187    0.3220   -1.0457 H   0  0  0  0  0  0  0  0  0  0  0  0
    4.4617   -0.2101   -2.7869 H   0  0  0  0  0  0  0  0  0  0  0  0
    6.8353    0.0329   -2.3223 H   0  0  0  0  0  0  0  0  0  0  0  0
    6.6049   -0.0956   -0.5327 H   0  0  0  0  0  0  0  0  0  0  0  0
    5.5424    2.0276   -2.4930 H   0  0  0  0  0  0  0  0  0  0  0  0
    6.9970    2.1825   -1.4313 H   0  0  0  0  0  0  0  0  0  0  0  0
    3.8354    3.8195    0.1606 H   0  0  0  0  0  0  0  0  0  0  0  0
    6.8367   -2.9982   -3.0615 H   0  0  0  0  0  0  0  0  0  0  0  0
    2.9227    0.4077    2.2391 H   0  0  0  0  0  0  0  0  0  0  0  0
    0.8330    0.6469    3.4875 H   0  0  0  0  0  0  0  0  0  0  0  0
   -5.0479   -1.7070    1.7333 H   0  0  0  0  0  0  0  0  0  0  0  0
  1  2  1  0
  2  3  2  0
  3  4  1  0
  4  5  2  0
  4  6  1  0
  6  7  2  0
  7  8  1  0
  7  9  1  0
  9 10  1  0
 10 11  1  0
 11 12  1  0
 12 13  1  0
 13 14  1  0
 14 15  2  0
 15 16  1  0
 16 17  2  0
 17 18  1  0
 18 19  2  0
 18 20  1  0
 20 21  1  0
 21 22  1  0
 22 23  1  0
 23 24  1  0
 24 25  2  0
 24 26  1  0
 21 27  1  0
 27 28  2  0
 27 29  1  0
 17 30  1  0
 30 31  2  0
 11 32  1  0
  8  2  1  0
 31 14  1  0
 32  6  1  0
  1 33  1  0
  1 34  1  0
  8 35  1  0
  9 36  1  0
 10 37  1  0
 10 38  1  0
 11 39  1  1
 12 40  1  0
 12 41  1  0
 13 42  1  0
 15 43  1  0
 16 44  1  0
 20 45  1  0
 21 46  1  6
 22 47  1  0
 22 48  1  0
 23 49  1  0
 23 50  1  0
 26 51  1  0
 29 52  1  0
 30 53  1  0
 31 54  1  0
 32 55  1  0
M  END
$$$$

     RDKit          3D

 55 57  0  0  0  0  0  0  0  0999 V2000
    5.4733    4.5537    1.9532 N   0  0  0  0  0  0  0  0  0  0  0  0
    5.2581    3.3469    1.2226 C   0  0  0  0  0  0  0  0  0  0  0  0
    5.5982    3.2833   -0.0788 N   0  0  0  0  0  0  0  0  0  0  0  0
    5.3675    2.1100   -0.7090 C   0  0  0  0  0  0  0  0  0  0  0  0
    5.6613    1.9814   -1.9249 O   0  0  0  0  0  0  0  0  0  0  0  0
    4.8116    1.0303   -0.0536 C   0  0  0  0  0  0  0  0  0  0  0  0
    4.4808    1.1429    1.2756 C   0  0  0  0  0  0  0  0  0  0  0  0
    4.7139    2.3179    1.8989 N   0  0  0  0  0  0  0  0  0  0  0  0
    3.9134    0.0239    1.9263 N   0  0  0  0  0  0  0  0  0  0  0  0
    3.8815   -1.3064    1.3089 C   0  0  0  0  0  0  0  0  0  0  0  0
    3.5360   -1.0635   -0.1482 C   0  0  2  0  0  0  0  0  0  0  0  0
    3.3460   -2.3290   -0.9118 C   0  0  0  0  0  0  0  0  0  0  0  0
    2.2819   -3.0973   -0.3444 N   0  0  0  0  0  0  0  0  0  0  0  0
    0.9074   -2.7506   -0.3351 C   0  0  0  0  0  0  0  0  0  0  0  0
    0.0293   -3.4814    0.4429 C   0  0  0  0  0  0  0  0  0  0  0  0
   -1.3109   -3.2118    0.4914 C   0  0  0  0  0  0  0  0  0  0  0  0
   -1.8206   -2.1646   -0.2671 C   0  0  0  0  0  0  0  0  0  0  0  0
   -3.2476   -1.9187   -0.1854 C   0  0  0  0  0  0  0  0  0  0  0  0
   -3.9856   -2.8006    0.3080 O   0  0  0  0  0  0  0  0  0  0  0  0
   -3.7821   -0.7074   -0.6542 N   0  0  0  0  0  0  0  0  0  0  0  0
   -5.2230   -0.4555   -0.5740 C   0  0  1  0  0  0  0  0  0  0  0  0
   -5.5034    0.5663    0.4715 C   0  0  0  0  0  0  0  0  0  0  0  0
   -4.8650    1.8832    0.3762 C   0  0  0  0  0  0  0  0  0  0  0  0
   -5.1456    2.7228   -0.7767 C   0  0  0  0  0  0  0  0  0  0  0  0
   -5.9289    2.4474   -1.6912 O   0  0  0  0  0  0  0  0  0  0  0  0
   -4.4900    3.9850   -0.9185 O   0  0  0  0  0  0  0  0  0  0  0  0
   -5.8241   -0.2919   -1.8849 C   0  0  0  0  0  0  0  0  0  0  0  0
   -5.1424   -0.2520   -2.9375 O   0  0  0  0  0  0  0  0  0  0  0  0
   -7.2128   -0.1759   -2.0265 O   0  0  0  0  0  0  0  0  0  0  0  0
   -0.9846   -1.4020   -1.0634 C   0  0  0  0  0  0  0  0  0  0  0  0
    0.3678   -1.7334   -1.0637 C   0  0  0  0  0  0  0  0  0  0  0  0
    4.5620   -0.2119   -0.6998 N   0  0  0  0  0  0  0  0  0  0  0  0
    6.2891    4.5738    2.6157 H   0  0  0  0  0  0  0  0  0  0  0  0
    4.8516    5.3666    1.8320 H   0  0  0  0  0  0  0  0  0  0  0  0
    4.4538    2.3766    2.9066 H   0  0  0  0  0  0  0  0  0  0  0  0
    3.5055    0.1536    2.8767 H   0  0  0  0  0  0  0  0  0  0  0  0
    3.0355   -1.8766    1.7453 H   0  0  0  0  0  0  0  0  0  0  0  0
    4.8492   -1.8266    1.4181 H   0  0  0  0  0  0  0  0  0  0  0  0
    2.6000   -0.4826   -0.1365 H   0  0  0  0  0  0  0  0  0  0  0  0
    4.2658   -2.9302   -0.9938 H   0  0  0  0  0  0  0  0  0  0  0  0
    2.9848   -2.0261   -1.9418 H   0  0  0  0  0  0  0  0  0  0  0  0
    2.5574   -4.0202    0.1134 H   0  0  0  0  0  0  0  0  0  0  0  0
    0.4222   -4.2971    1.0351 H   0  0  0  0  0  0  0  0  0  0  0  0
   -1.9950   -3.8078    1.1194 H   0  0  0  0  0  0  0  0  0  0  0  0
   -3.1549    0.0485   -1.0729 H   0  0  0  0  0  0  0  0  0  0  0  0
   -5.6449   -1.4341   -0.1174 H   0  0  0  0  0  0  0  0  0  0  0  0
   -6.6259    0.7536    0.5570 H   0  0  0  0  0  0  0  0  0  0  0  0
   -5.2712    0.1363    1.4997 H   0  0  0  0  0  0  0  0  0  0  0  0
   -3.7502    1.8161    0.5605 H   0  0  0  0  0  0  0  0  0  0  0  0
   -5.2044    2.4881    1.2825 H   0  0  0  0  0  0  0  0  0  0  0  0
   -4.9913    4.7297   -1.3877 H   0  0  0  0  0  0  0  0  0  0  0  0
   -7.6497    0.3806   -2.7296 H   0  0  0  0  0  0  0  0  0  0  0  0
   -1.3639   -0.5905   -1.6577 H   0  0  0  0  0  0  0  0  0  0  0  0
    0.9809   -1.1260   -1.7004 H   0  0  0  0  0  0  0  0  0  0  0  0
    5.1320   -0.4471   -1.5407 H   0  0  0  0  0  0  0  0  0  0  0  0
  1  2  1  0
  2  3  2  0
  3  4  1  0
  4  5  2  0
  4  6  1  0
  6  7  2  0
  7  8  1  0
  7  9  1  0
  9 10  1  0
 10 11  1  0
 11 12  1  0
 12 13  1  0
 13 14  1  0
 14 15  2  0
 15 16  1  0
 16 17  2  0
 17 18  1  0
 18 19  2  0
 18 20  1  0
 20 21  1  0
 21 22  1  0
 22 23  1  0
 23 24  1  0
 24 25  2  0
 24 26  1  0
 21 27  1  0
 27 28  2  0
 27 29  1  0
 17 30  1  0
 30 31  2  0
 11 32  1  0
  8  2  1  0
 31 14  1  0
 32  6  1  0
  1 33  1  0
  1 34  1  0
  8 35  1  0
  9 36  1  0
 10 37  1  0
 10 38  1  0
 11 39  1  1
 12 40  1  0
 12 41  1  0
 13 42  1  0
 15 43  1  0
 16 44  1  0
 20 45  1  0
 21 46  1  1
 22 47  1  0
 22 48  1  0
 23 49  1  0
 23 50  1  0
 26 51  1  0
 29 52  1  0
 30 53  1  0
 31 54  1  0
 32 55  1  0
M  END
$$$$

     RDKit          3D

 55 57  0  0  0  0  0  0  0  0999 V2000
    8.8053    2.4717   -0.2239 N   0  0  0  0  0  0  0  0  0  0  0  0
    7.5007    1.9537   -0.0556 C   0  0  0  0  0  0  0  0  0  0  0  0
    6.4273    2.7692   -0.1859 N   0  0  0  0  0  0  0  0  0  0  0  0
    5.1736    2.3136   -0.0330 C   0  0  0  0  0  0  0  0  0  0  0  0
    4.1999    3.0972   -0.1606 O   0  0  0  0  0  0  0  0  0  0  0  0
    5.0260    0.9736    0.2636 C   0  0  0  0  0  0  0  0  0  0  0  0
    6.1117    0.1515    0.3948 C   0  0  0  0  0  0  0  0  0  0  0  0
    7.3664    0.6472    0.2331 N   0  0  0  0  0  0  0  0  0  0  0  0
    5.9089   -1.2173    0.6998 N   0  0  0  0  0  0  0  0  0  0  0  0
    4.6950   -1.5869    1.3695 C   0  0  0  0  0  0  0  0  0  0  0  0
    3.4902   -0.9387    0.7141 C   0  0  2  0  0  0  0  0  0  0  0  0
    3.1737   -1.6067   -0.6059 C   0  0  0  0  0  0  0  0  0  0  0  0
    2.0471   -1.0414   -1.2697 N   0  0  0  0  0  0  0  0  0  0  0  0
    0.6988   -1.1109   -0.8197 C   0  0  0  0  0  0  0  0  0  0  0  0
   -0.2955   -0.3393   -1.4109 C   0  0  0  0  0  0  0  0  0  0  0  0
   -1.6137   -0.4049   -0.9956 C   0  0  0  0  0  0  0  0  0  0  0  0
   -2.0159   -1.2366    0.0253 C   0  0  0  0  0  0  0  0  0  0  0  0
   -3.4121   -1.3152    0.4747 C   0  0  0  0  0  0  0  0  0  0  0  0
   -3.7259   -2.0743    1.4558 O   0  0  0  0  0  0  0  0  0  0  0  0
   -4.4807   -0.6013   -0.1005 N   0  0  0  0  0  0  0  0  0  0  0  0
   -5.8520   -0.7115    0.3810 C   0  0  1  0  0  0  0  0  0  0  0  0
   -6.3770    0.5873    0.9078 C   0  0  0  0  0  0  0  0  0  0  0  0
   -6.3922    1.6901   -0.1135 C   0  0  0  0  0  0  0  0  0  0  0  0
   -6.9309    2.9165    0.5286 C   0  0  0  0  0  0  0  0  0  0  0  0
   -7.2913    2.9360    1.7551 O   0  0  0  0  0  0  0  0  0  0  0  0
   -7.0781    4.1170   -0.1574 O   0  0  0  0  0  0  0  0  0  0  0  0
   -6.7358   -1.3169   -0.6456 C   0  0  0  0  0  0  0  0  0  0  0  0
   -6.2229   -1.6443   -1.7501 O   0  0  0  0  0  0  0  0  0  0  0  0
   -8.0724   -1.5438   -0.4731 O   0  0  0  0  0  0  0  0  0  0  0  0
   -1.0308   -2.0044    0.6144 C   0  0  0  0  0  0  0  0  0  0  0  0
    0.2846   -1.9401    0.2008 C   0  0  0  0  0  0  0  0  0  0  0  0
    3.7252    0.4544    0.4326 N   0  0  0  0  0  0  0  0  0  0  0  0
    9.2996    2.3421   -1.1222 H   0  0  0  0  0  0  0  0  0  0  0  0
    9.2596    2.9764    0.5483 H   0  0  0  0  0  0  0  0  0  0  0  0
    8.1734   -0.0011    0.3386 H   0  0  0  0  0  0  0  0  0  0  0  0
    6.6157   -1.9254    0.4464 H   0  0  0  0  0  0  0  0  0  0  0  0
    4.7534   -1.2864    2.4338 H   0  0  0  0  0  0  0  0  0  0  0  0
    4.5406   -2.6945    1.2782 H   0  0  0  0  0  0  0  0  0  0  0  0
    2.6533   -1.0384    1.4027 H   0  0  0  0  0  0  0  0  0  0  0  0
    4.0544   -1.6444   -1.2751 H   0  0  0  0  0  0  0  0  0  0  0  0
    2.9367   -2.6658   -0.3654 H   0  0  0  0  0  0  0  0  0  0  0  0
    2.1958   -0.5143   -2.1873 H   0  0  0  0  0  0  0  0  0  0  0  0
    0.0037    0.3181   -2.2130 H   0  0  0  0  0  0  0  0  0  0  0  0
   -2.3734    0.2197   -1.4857 H   0  0  0  0  0  0  0  0  0  0  0  0
   -4.2924    0.0354   -0.9058 H   0  0  0  0  0  0  0  0  0  0  0  0
   -5.8225   -1.4236    1.2313 H   0  0  0  0  0  0  0  0  0  0  0  0
   -5.7457    0.8781    1.7690 H   0  0  0  0  0  0  0  0  0  0  0  0
   -7.3916    0.3923    1.3128 H   0  0  0  0  0  0  0  0  0  0  0  0
   -5.3154    1.9246   -0.3605 H   0  0  0  0  0  0  0  0  0  0  0  0
   -6.8723    1.4249   -1.0505 H   0  0  0  0  0  0  0  0  0  0  0  0
   -7.8364    4.7638    0.0075 H   0  0  0  0  0  0  0  0  0  0  0  0
   -8.5178   -2.3719   -0.8942 H   0  0  0  0  0  0  0  0  0  0  0  0
   -1.3550   -2.6568    1.4175 H   0  0  0  0  0  0  0  0  0  0  0  0
    1.0415   -2.5730    0.6843 H   0  0  0  0  0  0  0  0  0  0  0  0
    2.8877    1.0762    0.3567 H   0  0  0  0  0  0  0  0  0  0  0  0
  1  2  1  0
  2  3  2  0
  3  4  1  0
  4  5  2  0
  4  6  1  0
  6  7  2  0
  7  8  1  0
  7  9  1  0
  9 10  1  0
 10 11  1  0
 11 12  1  0
 12 13  1  0
 13 14  1  0
 14 15  2  0
 15 16  1  0
 16 17  2  0
 17 18  1  0
 18 19  2  0
 18 20  1  0
 20 21  1  0
 21 22  1  0
 22 23  1  0
 23 24  1  0
 24 25  2  0
 24 26  1  0
 21 27  1  0
 27 28  2  0
 27 29  1  0
 17 30  1  0
 30 31  2  0
 11 32  1  0
  8  2  1  0
 31 14  1  0
 32  6  1  0
  1 33  1  0
  1 34  1  0
  8 35  1  0
  9 36  1  0
 10 37  1  0
 10 38  1  0
 11 39  1  1
 12 40  1  0
 12 41  1  0
 13 42  1  0
 15 43  1  0
 16 44  1  0
 20 45  1  0
 21 46  1  1
 22 47  1  0
 22 48  1  0
 23 49  1  0
 23 50  1  0
 26 51  1  0
 29 52  1  0
 30 53  1  0
 31 54  1  0
 32 55  1  0
M  END
$$$$

     RDKit          3D

 55 57  0  0  0  0  0  0  0  0999 V2000
   -9.6099    0.7145    1.5470 N   0  0  0  0  0  0  0  0  0  0  0  0
   -8.2366    0.4542    1.2669 C   0  0  0  0  0  0  0  0  0  0  0  0
   -7.4931   -0.3875    2.0073 N   0  0  0  0  0  0  0  0  0  0  0  0
   -6.2123   -0.6268    1.7434 C   0  0  0  0  0  0  0  0  0  0  0  0
   -5.5202   -1.4208    2.4453 O   0  0  0  0  0  0  0  0  0  0  0  0
   -5.5816   -0.0117    0.6828 C   0  0  0  0  0  0  0  0  0  0  0  0
   -6.3491    0.8556   -0.0808 C   0  0  0  0  0  0  0  0  0  0  0  0
   -7.6303    1.0670    0.2184 N   0  0  0  0  0  0  0  0  0  0  0  0
   -5.6926    1.4707   -1.1843 N   0  0  0  0  0  0  0  0  0  0  0  0
   -4.5793    0.8695   -1.8586 C   0  0  0  0  0  0  0  0  0  0  0  0
   -3.5826    0.2634   -0.8690 C   0  0  2  0  0  0  0  0  0  0  0  0
   -2.9055   -0.9291   -1.4853 C   0  0  0  0  0  0  0  0  0  0  0  0
   -1.9528   -1.5745   -0.6614 N   0  0  0  0  0  0  0  0  0  0  0  0
   -0.6935   -1.0297   -0.3475 C   0  0  0  0  0  0  0  0  0  0  0  0
    0.4255   -1.6862   -0.8895 C   0  0  0  0  0  0  0  0  0  0  0  0
    1.6818   -1.1862   -0.6216 C   0  0  0  0  0  0  0  0  0  0  0  0
    1.8778   -0.0717    0.1551 C   0  0  0  0  0  0  0  0  0  0  0  0
    3.2004    0.4744    0.4148 C   0  0  0  0  0  0  0  0  0  0  0  0
    3.3453    1.6011    0.9872 O   0  0  0  0  0  0  0  0  0  0  0  0
    4.3902   -0.1995    0.0527 N   0  0  0  0  0  0  0  0  0  0  0  0
    5.6920    0.4561    0.3437 C   0  0  1  0  0  0  0  0  0  0  0  0
    6.2374   -0.3588    1.4864 C   0  0  0  0  0  0  0  0  0  0  0  0
    7.5349    0.0316    2.0562 C   0  0  0  0  0  0  0  0  0  0  0  0
    8.6588   -0.0718    1.1448 C   0  0  0  0  0  0  0  0  0  0  0  0
    9.6092    0.7711    1.0848 O   0  0  0  0  0  0  0  0  0  0  0  0
    8.7227   -1.1624    0.2702 O   0  0  0  0  0  0  0  0  0  0  0  0
    6.5586    0.3639   -0.8417 C   0  0  0  0  0  0  0  0  0  0  0  0
    6.3737   -0.5478   -1.6791 O   0  0  0  0  0  0  0  0  0  0  0  0
    7.5737    1.2737   -1.0567 O   0  0  0  0  0  0  0  0  0  0  0  0
    0.7798    0.5432    0.6698 C   0  0  0  0  0  0  0  0  0  0  0  0
   -0.5218    0.0731    0.4264 C   0  0  0  0  0  0  0  0  0  0  0  0
   -4.2331   -0.1845    0.3303 N   0  0  0  0  0  0  0  0  0  0  0  0
   -9.8726    0.9819    2.5037 H   0  0  0  0  0  0  0  0  0  0  0  0
  -10.2910    0.6156    0.7529 H   0  0  0  0  0  0  0  0  0  0  0  0
   -8.1827    1.7376   -0.3856 H   0  0  0  0  0  0  0  0  0  0  0  0
   -6.0451    2.3898   -1.5051 H   0  0  0  0  0  0  0  0  0  0  0  0
   -4.0705    1.6315   -2.4789 H   0  0  0  0  0  0  0  0  0  0  0  0
   -4.9590    0.0621   -2.5112 H   0  0  0  0  0  0  0  0  0  0  0  0
   -2.8850    1.0778   -0.6280 H   0  0  0  0  0  0  0  0  0  0  0  0
   -2.4401   -0.5528   -2.4541 H   0  0  0  0  0  0  0  0  0  0  0  0
   -3.6800   -1.6584   -1.8789 H   0  0  0  0  0  0  0  0  0  0  0  0
   -2.1674   -2.5219   -0.2370 H   0  0  0  0  0  0  0  0  0  0  0  0
    0.2379   -2.5458   -1.4898 H   0  0  0  0  0  0  0  0  0  0  0  0
    2.5301   -1.7025   -1.0433 H   0  0  0  0  0  0  0  0  0  0  0  0
    4.4234   -1.1210   -0.4011 H   0  0  0  0  0  0  0  0  0  0  0  0
    5.5257    1.4937    0.6998 H   0  0  0  0  0  0  0  0  0  0  0  0
    5.4093   -0.3793    2.2677 H   0  0  0  0  0  0  0  0  0  0  0  0
    6.2610   -1.4468    1.1510 H   0  0  0  0  0  0  0  0  0  0  0  0
    7.7348   -0.6898    2.9166 H   0  0  0  0  0  0  0  0  0  0  0  0
    7.4943    1.0187    2.5902 H   0  0  0  0  0  0  0  0  0  0  0  0
    9.2615   -1.0730   -0.5914 H   0  0  0  0  0  0  0  0  0  0  0  0
    7.8868    1.5326   -2.0046 H   0  0  0  0  0  0  0  0  0  0  0  0
    0.9098    1.4193    1.2858 H   0  0  0  0  0  0  0  0  0  0  0  0
   -1.3370    0.6010    0.8882 H   0  0  0  0  0  0  0  0  0  0  0  0
   -3.6120   -0.7044    1.0142 H   0  0  0  0  0  0  0  0  0  0  0  0
  1  2  1  0
  2  3  2  0
  3  4  1  0
  4  5  2  0
  4  6  1  0
  6  7  2  0
  7  8  1  0
  7  9  1  0
  9 10  1  0
 10 11  1  0
 11 12  1  0
 12 13  1  0
 13 14  1  0
 14 15  2  0
 15 16  1  0
 16 17  2  0
 17 18  1  0
 18 19  2  0
 18 20  1  0
 20 21  1  0
 21 22  1  0
 22 23  1  0
 23 24  1  0
 24 25  2  0
 24 26  1  0
 21 27  1  0
 27 28  2  0
 27 29  1  0
 17 30  1  0
 30 31  2  0
 11 32  1  0
  8  2  1  0
 31 14  1  0
 32  6  1  0
  1 33  1  0
  1 34  1  0
  8 35  1  0
  9 36  1  0
 10 37  1  0
 10 38  1  0
 11 39  1  1
 12 40  1  0
 12 41  1  0
 13 42  1  0
 15 43  1  0
 16 44  1  0
 20 45  1  0
 21 46  1  1
 22 47  1  0
 22 48  1  0
 23 49  1  0
 23 50  1  0
 26 51  1  0
 29 52  1  0
 30 53  1  0
 31 54  1  0
 32 55  1  0
M  END
$$$$

     RDKit          3D

 55 57  0  0  0  0  0  0  0  0999 V2000
   -9.6896    0.7761    0.2395 N   0  0  0  0  0  0  0  0  0  0  0  0
   -8.3202    0.8494    0.5690 C   0  0  0  0  0  0  0  0  0  0  0  0
   -7.8738    1.5119    1.6505 N   0  0  0  0  0  0  0  0  0  0  0  0
   -6.5826    1.6068    1.9977 C   0  0  0  0  0  0  0  0  0  0  0  0
   -6.1975    2.2391    3.0235 O   0  0  0  0  0  0  0  0  0  0  0  0
   -5.6590    0.9663    1.1639 C   0  0  0  0  0  0  0  0  0  0  0  0
   -6.0939    0.2776    0.0445 C   0  0  0  0  0  0  0  0  0  0  0  0
   -7.4033    0.2376   -0.2215 N   0  0  0  0  0  0  0  0  0  0  0  0
   -5.1140   -0.3700   -0.7932 N   0  0  0  0  0  0  0  0  0  0  0  0
   -3.8055    0.2289   -0.8129 C   0  0  0  0  0  0  0  0  0  0  0  0
   -3.3308    0.3194    0.6453 C   0  0  2  0  0  0  0  0  0  0  0  0
   -3.1351   -1.1094    1.1065 C   0  0  0  0  0  0  0  0  0  0  0  0
   -2.1453   -1.7284    0.2637 N   0  0  0  0  0  0  0  0  0  0  0  0
   -0.8032   -1.2795    0.3010 C   0  0  0  0  0  0  0  0  0  0  0  0
   -0.3941   -0.4658    1.3316 C   0  0  0  0  0  0  0  0  0  0  0  0
    0.9224    0.0199    1.3976 C   0  0  0  0  0  0  0  0  0  0  0  0
    1.8113   -0.3379    0.3986 C   0  0  0  0  0  0  0  0  0  0  0  0
    3.1829    0.1881    0.4790 C   0  0  0  0  0  0  0  0  0  0  0  0
    3.4662    1.0863    1.3453 O   0  0  0  0  0  0  0  0  0  0  0  0
    4.2279   -0.2422   -0.3542 N   0  0  0  0  0  0  0  0  0  0  0  0
    5.5775    0.3313   -0.2218 C   0  0  1  0  0  0  0  0  0  0  0  0
    6.4147   -0.7881    0.2886 C   0  0  0  0  0  0  0  0  0  0  0  0
    7.8508   -0.4269    0.4283 C   0  0  0  0  0  0  0  0  0  0  0  0
    8.4818   -0.2717   -0.8884 C   0  0  0  0  0  0  0  0  0  0  0  0
    7.8905   -0.7790   -1.9009 O   0  0  0  0  0  0  0  0  0  0  0  0
    9.6728    0.3836   -1.1222 O   0  0  0  0  0  0  0  0  0  0  0  0
    5.9404    1.0466   -1.4169 C   0  0  0  0  0  0  0  0  0  0  0  0
    5.3351    0.9460   -2.5366 O   0  0  0  0  0  0  0  0  0  0  0  0
    7.0171    1.9412   -1.4237 O   0  0  0  0  0  0  0  0  0  0  0  0
    1.3776   -1.1512   -0.6174 C   0  0  0  0  0  0  0  0  0  0  0  0
    0.0954   -1.6367   -0.7016 C   0  0  0  0  0  0  0  0  0  0  0  0
   -4.2899    1.0243    1.4656 N   0  0  0  0  0  0  0  0  0  0  0  0
   -9.9957    0.4715   -0.7009 H   0  0  0  0  0  0  0  0  0  0  0  0
  -10.3900    1.0375    0.9685 H   0  0  0  0  0  0  0  0  0  0  0  0
   -7.7089   -0.2968   -1.0850 H   0  0  0  0  0  0  0  0  0  0  0  0
   -5.4184   -1.1986   -1.3063 H   0  0  0  0  0  0  0  0  0  0  0  0
   -3.0564   -0.3874   -1.3454 H   0  0  0  0  0  0  0  0  0  0  0  0
   -3.8735    1.2615   -1.1786 H   0  0  0  0  0  0  0  0  0  0  0  0
   -2.4316    0.9269    0.6170 H   0  0  0  0  0  0  0  0  0  0  0  0
   -2.7959   -1.1919    2.1497 H   0  0  0  0  0  0  0  0  0  0  0  0
   -4.1072   -1.6604    1.0092 H   0  0  0  0  0  0  0  0  0  0  0  0
   -2.3702   -2.5184   -0.3968 H   0  0  0  0  0  0  0  0  0  0  0  0
   -1.0552   -0.1758    2.1346 H   0  0  0  0  0  0  0  0  0  0  0  0
    1.2406    0.6564    2.2053 H   0  0  0  0  0  0  0  0  0  0  0  0
    4.0703   -0.9651   -1.0702 H   0  0  0  0  0  0  0  0  0  0  0  0
    5.5122    1.1404    0.6056 H   0  0  0  0  0  0  0  0  0  0  0  0
    6.2616   -1.7322   -0.2951 H   0  0  0  0  0  0  0  0  0  0  0  0
    6.0520   -1.0607    1.3344 H   0  0  0  0  0  0  0  0  0  0  0  0
    7.8710    0.5920    0.9284 H   0  0  0  0  0  0  0  0  0  0  0  0
    8.4037   -1.1479    1.0797 H   0  0  0  0  0  0  0  0  0  0  0  0
   10.0801    0.5362   -2.0387 H   0  0  0  0  0  0  0  0  0  0  0  0
    7.3373    2.3902   -2.2890 H   0  0  0  0  0  0  0  0  0  0  0  0
    2.1296   -1.4002   -1.3834 H   0  0  0  0  0  0  0  0  0  0  0  0
   -0.1714   -2.2657   -1.5224 H   0  0  0  0  0  0  0  0  0  0  0  0
   -4.0105    1.5947    2.3004 H   0  0  0  0  0  0  0  0  0  0  0  0
  1  2  1  0
  2  3  2  0
  3  4  1  0
  4  5  2  0
  4  6  1  0
  6  7  2  0
  7  8  1  0
  7  9  1  0
  9 10  1  0
 10 11  1  0
 11 12  1  0
 12 13  1  0
 13 14  1  0
 14 15  2  0
 15 16  1  0
 16 17  2  0
 17 18  1  0
 18 19  2  0
 18 20  1  0
 20 21  1  0
 21 22  1  0
 22 23  1  0
 23 24  1  0
 24 25  2  0
 24 26  1  0
 21 27  1  0
 27 28  2  0
 27 29  1  0
 17 30  1  0
 30 31  2  0
 11 32  1  0
  8  2  1  0
 31 14  1  0
 32  6  1  0
  1 33  1  0
  1 34  1  0
  8 35  1  0
  9 36  1  0
 10 37  1  0
 10 38  1  0
 11 39  1  6
 12 40  1  0
 12 41  1  0
 13 42  1  0
 15 43  1  0
 16 44  1  0
 20 45  1  0
 21 46  1  1
 22 47  1  0
 22 48  1  0
 23 49  1  0
 23 50  1  0
 26 51  1  0
 29 52  1  0
 30 53  1  0
 31 54  1  0
 32 55  1  0
M  END
$$$$

     RDKit          3D

 55 57  0  0  0  0  0  0  0  0999 V2000
   -9.5753   -0.2296   -2.6882 N   0  0  0  0  0  0  0  0  0  0  0  0
   -8.2565   -0.0722   -2.2124 C   0  0  0  0  0  0  0  0  0  0  0  0
   -7.2906    0.5543   -2.9006 N   0  0  0  0  0  0  0  0  0  0  0  0
   -6.0699    0.6457   -2.3504 C   0  0  0  0  0  0  0  0  0  0  0  0
   -5.1230    1.2320   -2.9685 O   0  0  0  0  0  0  0  0  0  0  0  0
   -5.7533    0.1329   -1.1197 C   0  0  0  0  0  0  0  0  0  0  0  0
   -6.7501   -0.5057   -0.4256 C   0  0  0  0  0  0  0  0  0  0  0  0
   -7.9611   -0.5803   -1.0041 N   0  0  0  0  0  0  0  0  0  0  0  0
   -6.4508   -1.0462    0.8509 N   0  0  0  0  0  0  0  0  0  0  0  0
   -5.2014   -0.6953    1.5338 C   0  0  0  0  0  0  0  0  0  0  0  0
   -4.1144   -0.7010    0.4883 C   0  0  2  0  0  0  0  0  0  0  0  0
   -2.7520   -0.4532    1.0930 C   0  0  0  0  0  0  0  0  0  0  0  0
   -1.7203   -0.4597    0.0906 N   0  0  0  0  0  0  0  0  0  0  0  0
   -0.3801   -0.2467    0.4643 C   0  0  0  0  0  0  0  0  0  0  0  0
    0.6024   -0.2531   -0.5000 C   0  0  0  0  0  0  0  0  0  0  0  0
    1.9407   -0.0420   -0.1365 C   0  0  0  0  0  0  0  0  0  0  0  0
    2.2901    0.1723    1.1725 C   0  0  0  0  0  0  0  0  0  0  0  0
    3.6623    0.3890    1.5491 C   0  0  0  0  0  0  0  0  0  0  0  0
    3.9541    0.5827    2.7653 O   0  0  0  0  0  0  0  0  0  0  0  0
    4.7702    0.4081    0.6523 N   0  0  0  0  0  0  0  0  0  0  0  0
    6.1302    0.6325    1.1007 C   0  0  1  0  0  0  0  0  0  0  0  0
    6.9609   -0.5527    0.7219 C   0  0  0  0  0  0  0  0  0  0  0  0
    6.9914   -0.7923   -0.7669 C   0  0  0  0  0  0  0  0  0  0  0  0
    7.8410   -1.9823   -1.0524 C   0  0  0  0  0  0  0  0  0  0  0  0
    8.4040   -2.6248   -0.1502 O   0  0  0  0  0  0  0  0  0  0  0  0
    7.9971   -2.3691   -2.3627 O   0  0  0  0  0  0  0  0  0  0  0  0
    6.7209    1.8283    0.4287 C   0  0  0  0  0  0  0  0  0  0  0  0
    6.1146    2.5268   -0.4013 O   0  0  0  0  0  0  0  0  0  0  0  0
    8.0231    2.1700    0.7579 O   0  0  0  0  0  0  0  0  0  0  0  0
    1.3051    0.1771    2.1272 C   0  0  0  0  0  0  0  0  0  0  0  0
   -0.0371   -0.0313    1.7876 C   0  0  0  0  0  0  0  0  0  0  0  0
   -4.4436    0.2354   -0.5388 N   0  0  0  0  0  0  0  0  0  0  0  0
  -10.3459    0.2535   -2.1835 H   0  0  0  0  0  0  0  0  0  0  0  0
   -9.7632   -0.8168   -3.5249 H   0  0  0  0  0  0  0  0  0  0  0  0
   -8.7294   -1.0773   -0.4590 H   0  0  0  0  0  0  0  0  0  0  0  0
   -7.1524   -1.6983    1.2784 H   0  0  0  0  0  0  0  0  0  0  0  0
   -4.9564   -1.4232    2.3199 H   0  0  0  0  0  0  0  0  0  0  0  0
   -5.2498    0.3446    1.9456 H   0  0  0  0  0  0  0  0  0  0  0  0
   -4.0929   -1.7139    0.0310 H   0  0  0  0  0  0  0  0  0  0  0  0
   -2.7340    0.5359    1.5814 H   0  0  0  0  0  0  0  0  0  0  0  0
   -2.4896   -1.2148    1.8482 H   0  0  0  0  0  0  0  0  0  0  0  0
   -1.9738   -0.6210   -0.8957 H   0  0  0  0  0  0  0  0  0  0  0  0
    0.3192   -0.4225   -1.5285 H   0  0  0  0  0  0  0  0  0  0  0  0
    2.6416   -0.0637   -0.9561 H   0  0  0  0  0  0  0  0  0  0  0  0
    4.5486    0.2534   -0.3529 H   0  0  0  0  0  0  0  0  0  0  0  0
    6.0918    0.7979    2.1967 H   0  0  0  0  0  0  0  0  0  0  0  0
    7.9811   -0.3895    1.1156 H   0  0  0  0  0  0  0  0  0  0  0  0
    6.5535   -1.4915    1.2001 H   0  0  0  0  0  0  0  0  0  0  0  0
    7.5010    0.0809   -1.2624 H   0  0  0  0  0  0  0  0  0  0  0  0
    5.9906   -0.8803   -1.1863 H   0  0  0  0  0  0  0  0  0  0  0  0
    8.8487   -2.8101   -2.6970 H   0  0  0  0  0  0  0  0  0  0  0  0
    8.3370    3.1291    0.7471 H   0  0  0  0  0  0  0  0  0  0  0  0
    1.5025    0.3378    3.1691 H   0  0  0  0  0  0  0  0  0  0  0  0
   -0.8279   -0.0329    2.5116 H   0  0  0  0  0  0  0  0  0  0  0  0
   -3.8292    0.9805   -0.9044 H   0  0  0  0  0  0  0  0  0  0  0  0
  1  2  1  0
  2  3  2  0
  3  4  1  0
  4  5  2  0
  4  6  1  0
  6  7  2  0
  7  8  1  0
  7  9  1  0
  9 10  1  0
 10 11  1  0
 11 12  1  0
 12 13  1  0
 13 14  1  0
 14 15  2  0
 15 16  1  0
 16 17  2  0
 17 18  1  0
 18 19  2  0
 18 20  1  0
 20 21  1  0
 21 22  1  0
 22 23  1  0
 23 24  1  0
 24 25  2  0
 24 26  1  0
 21 27  1  0
 27 28  2  0
 27 29  1  0
 17 30  1  0
 30 31  2  0
 11 32  1  0
  8  2  1  0
 31 14  1  0
 32  6  1  0
  1 33  1  0
  1 34  1  0
  8 35  1  0
  9 36  1  0
 10 37  1  0
 10 38  1  0
 11 39  1  6
 12 40  1  0
 12 41  1  0
 13 42  1  0
 15 43  1  0
 16 44  1  0
 20 45  1  0
 21 46  1  1
 22 47  1  0
 22 48  1  0
 23 49  1  0
 23 50  1  0
 26 51  1  0
 29 52  1  0
 30 53  1  0
 31 54  1  0
 32 55  1  0
M  END
$$$$

     RDKit          3D

 55 57  0  0  0  0  0  0  0  0999 V2000
   -9.5114    1.7803    1.6924 N   0  0  0  0  0  0  0  0  0  0  0  0
   -8.2464    1.6656    1.0670 C   0  0  0  0  0  0  0  0  0  0  0  0
   -7.5723    2.7787    0.7436 N   0  0  0  0  0  0  0  0  0  0  0  0
   -6.3645    2.7472    0.1460 C   0  0  0  0  0  0  0  0  0  0  0  0
   -5.7514    3.7994   -0.1478 O   0  0  0  0  0  0  0  0  0  0  0  0
   -5.7841    1.5319   -0.1520 C   0  0  0  0  0  0  0  0  0  0  0  0
   -6.4748    0.3868    0.1794 C   0  0  0  0  0  0  0  0  0  0  0  0
   -7.6865    0.4913    0.7796 N   0  0  0  0  0  0  0  0  0  0  0  0
   -5.8832   -0.8597   -0.1244 N   0  0  0  0  0  0  0  0  0  0  0  0
   -4.4485   -0.9864   -0.2687 C   0  0  0  0  0  0  0  0  0  0  0  0
   -3.8592    0.1603   -1.0581 C   0  0  2  0  0  0  0  0  0  0  0  0
   -2.3850    0.2267   -0.7271 C   0  0  0  0  0  0  0  0  0  0  0  0
   -1.7690   -1.0084   -1.0931 N   0  0  0  0  0  0  0  0  0  0  0  0
   -0.3782   -1.2265   -0.8907 C   0  0  0  0  0  0  0  0  0  0  0  0
    0.4071   -0.2424   -0.3508 C   0  0  0  0  0  0  0  0  0  0  0  0
    1.7787   -0.4108   -0.1310 C   0  0  0  0  0  0  0  0  0  0  0  0
    2.3664   -1.6061   -0.4672 C   0  0  0  0  0  0  0  0  0  0  0  0
    3.7970   -1.8576   -0.2660 C   0  0  0  0  0  0  0  0  0  0  0  0
    4.3038   -2.9834   -0.5448 O   0  0  0  0  0  0  0  0  0  0  0  0
    4.6941   -0.8831    0.2428 N   0  0  0  0  0  0  0  0  0  0  0  0
    6.1193   -1.1613    0.4358 C   0  0  1  0  0  0  0  0  0  0  0  0
    6.8453   -0.3502   -0.5844 C   0  0  0  0  0  0  0  0  0  0  0  0
    6.6447    1.1121   -0.5813 C   0  0  0  0  0  0  0  0  0  0  0  0
    7.0302    1.8896    0.5870 C   0  0  0  0  0  0  0  0  0  0  0  0
    7.5824    1.4862    1.6305 O   0  0  0  0  0  0  0  0  0  0  0  0
    6.7659    3.2853    0.5878 O   0  0  0  0  0  0  0  0  0  0  0  0
    6.5709   -1.0909    1.8141 C   0  0  0  0  0  0  0  0  0  0  0  0
    5.8277   -0.7431    2.7623 O   0  0  0  0  0  0  0  0  0  0  0  0
    7.8861   -1.4283    2.1014 O   0  0  0  0  0  0  0  0  0  0  0  0
    1.5718   -2.5935   -1.0104 C   0  0  0  0  0  0  0  0  0  0  0  0
    0.2089   -2.4219   -1.2272 C   0  0  0  0  0  0  0  0  0  0  0  0
   -4.5227    1.4099   -0.7778 N   0  0  0  0  0  0  0  0  0  0  0  0
  -10.3548    1.4439    1.2166 H   0  0  0  0  0  0  0  0  0  0  0  0
   -9.5842    2.2047    2.6326 H   0  0  0  0  0  0  0  0  0  0  0  0
   -8.1805   -0.3812    1.0163 H   0  0  0  0  0  0  0  0  0  0  0  0
   -6.4970   -1.6931   -0.2441 H   0  0  0  0  0  0  0  0  0  0  0  0
   -4.2321   -1.9390   -0.7974 H   0  0  0  0  0  0  0  0  0  0  0  0
   -4.0169   -1.0350    0.7705 H   0  0  0  0  0  0  0  0  0  0  0  0
   -3.9469   -0.0801   -2.1416 H   0  0  0  0  0  0  0  0  0  0  0  0
   -2.3264    0.3995    0.3874 H   0  0  0  0  0  0  0  0  0  0  0  0
   -1.9019    1.1161   -1.1801 H   0  0  0  0  0  0  0  0  0  0  0  0
   -2.3305   -1.7666   -1.5139 H   0  0  0  0  0  0  0  0  0  0  0  0
   -0.0535    0.7011   -0.0847 H   0  0  0  0  0  0  0  0  0  0  0  0
    2.3525    0.3943    0.2964 H   0  0  0  0  0  0  0  0  0  0  0  0
    4.3470    0.0572    0.4894 H   0  0  0  0  0  0  0  0  0  0  0  0
    6.3032   -2.2469    0.1140 H   0  0  0  0  0  0  0  0  0  0  0  0
    6.4501   -0.7180   -1.5886 H   0  0  0  0  0  0  0  0  0  0  0  0
    7.9348   -0.6365   -0.6376 H   0  0  0  0  0  0  0  0  0  0  0  0
    5.6003    1.3630   -0.9320 H   0  0  0  0  0  0  0  0  0  0  0  0
    7.2724    1.5106   -1.4506 H   0  0  0  0  0  0  0  0  0  0  0  0
    7.4019    3.8837    1.1036 H   0  0  0  0  0  0  0  0  0  0  0  0
    8.4029   -0.9997    2.8813 H   0  0  0  0  0  0  0  0  0  0  0  0
    2.0268   -3.5403   -1.2788 H   0  0  0  0  0  0  0  0  0  0  0  0
   -0.3966   -3.2217   -1.6595 H   0  0  0  0  0  0  0  0  0  0  0  0
   -4.0337    2.2866   -1.0587 H   0  0  0  0  0  0  0  0  0  0  0  0
  1  2  1  0
  2  3  2  0
  3  4  1  0
  4  5  2  0
  4  6  1  0
  6  7  2  0
  7  8  1  0
  7  9  1  0
  9 10  1  0
 10 11  1  0
 11 12  1  0
 12 13  1  0
 13 14  1  0
 14 15  2  0
 15 16  1  0
 16 17  2  0
 17 18  1  0
 18 19  2  0
 18 20  1  0
 20 21  1  0
 21 22  1  0
 22 23  1  0
 23 24  1  0
 24 25  2  0
 24 26  1  0
 21 27  1  0
 27 28  2  0
 27 29  1  0
 17 30  1  0
 30 31  2  0
 11 32  1  0
  8  2  1  0
 31 14  1  0
 32  6  1  0
  1 33  1  0
  1 34  1  0
  8 35  1  0
  9 36  1  0
 10 37  1  0
 10 38  1  0
 11 39  1  6
 12 40  1  0
 12 41  1  0
 13 42  1  0
 15 43  1  0
 16 44  1  0
 20 45  1  0
 21 46  1  6
 22 47  1  0
 22 48  1  0
 23 49  1  0
 23 50  1  0
 26 51  1  0
 29 52  1  0
 30 53  1  0
 31 54  1  0
 32 55  1  0
M  END
$$$$

     RDKit          3D

 55 57  0  0  0  0  0  0  0  0999 V2000
    9.3442    0.7676    1.3198 N   0  0  0  0  0  0  0  0  0  0  0  0
    7.9331    0.8410    1.1925 C   0  0  0  0  0  0  0  0  0  0  0  0
    7.2570    1.8133    1.8126 N   0  0  0  0  0  0  0  0  0  0  0  0
    5.9224    1.9282    1.7242 C   0  0  0  0  0  0  0  0  0  0  0  0
    5.3288    2.8511    2.3191 O   0  0  0  0  0  0  0  0  0  0  0  0
    5.2592    1.0071    0.9689 C   0  0  0  0  0  0  0  0  0  0  0  0
    5.9246    0.0016    0.3233 C   0  0  0  0  0  0  0  0  0  0  0  0
    7.2748   -0.0639    0.4497 N   0  0  0  0  0  0  0  0  0  0  0  0
    5.2046   -0.9457   -0.4586 N   0  0  0  0  0  0  0  0  0  0  0  0
    3.8322   -1.2355   -0.0786 C   0  0  0  0  0  0  0  0  0  0  0  0
    3.1305    0.1263    0.0206 C   0  0  2  0  0  0  0  0  0  0  0  0
    2.9550    0.5879   -1.4171 C   0  0  0  0  0  0  0  0  0  0  0  0
    2.1383   -0.3759   -2.1202 N   0  0  0  0  0  0  0  0  0  0  0  0
    0.7707   -0.5044   -1.7860 C   0  0  0  0  0  0  0  0  0  0  0  0
    0.0493   -1.5935   -2.2173 C   0  0  0  0  0  0  0  0  0  0  0  0
   -1.2922   -1.6839   -1.8890 C   0  0  0  0  0  0  0  0  0  0  0  0
   -1.9397   -0.7270   -1.1460 C   0  0  0  0  0  0  0  0  0  0  0  0
   -3.3325   -0.8622   -0.8146 C   0  0  0  0  0  0  0  0  0  0  0  0
   -3.9626   -1.9589   -0.9414 O   0  0  0  0  0  0  0  0  0  0  0  0
   -4.0794    0.2263   -0.3275 N   0  0  0  0  0  0  0  0  0  0  0  0
   -5.5068    0.0850    0.0166 C   0  0  1  0  0  0  0  0  0  0  0  0
   -5.7678    0.6552    1.3667 C   0  0  0  0  0  0  0  0  0  0  0  0
   -7.2080    0.4957    1.7568 C   0  0  0  0  0  0  0  0  0  0  0  0
   -7.6441   -0.9065    1.7908 C   0  0  0  0  0  0  0  0  0  0  0  0
   -7.8913   -1.5198    0.7292 O   0  0  0  0  0  0  0  0  0  0  0  0
   -7.7863   -1.5648    2.9915 O   0  0  0  0  0  0  0  0  0  0  0  0
   -6.2412    0.8466   -1.0116 C   0  0  0  0  0  0  0  0  0  0  0  0
   -5.5826    1.4942   -1.8785 O   0  0  0  0  0  0  0  0  0  0  0  0
   -7.6094    0.9212   -1.1249 O   0  0  0  0  0  0  0  0  0  0  0  0
   -1.2138    0.3506   -0.7234 C   0  0  0  0  0  0  0  0  0  0  0  0
    0.1529    0.4656   -1.0449 C   0  0  0  0  0  0  0  0  0  0  0  0
    3.8499    1.0620    0.8253 N   0  0  0  0  0  0  0  0  0  0  0  0
    9.9099    0.7194    0.4507 H   0  0  0  0  0  0  0  0  0  0  0  0
    9.7496    0.7655    2.2717 H   0  0  0  0  0  0  0  0  0  0  0  0
    7.7756   -0.8370   -0.0477 H   0  0  0  0  0  0  0  0  0  0  0  0
    5.6917   -1.3891   -1.2673 H   0  0  0  0  0  0  0  0  0  0  0  0
    3.2877   -1.7966   -0.8703 H   0  0  0  0  0  0  0  0  0  0  0  0
    3.7732   -1.7868    0.8761 H   0  0  0  0  0  0  0  0  0  0  0  0
    2.1539   -0.0328    0.4712 H   0  0  0  0  0  0  0  0  0  0  0  0
    2.5418    1.6138   -1.4569 H   0  0  0  0  0  0  0  0  0  0  0  0
    3.9793    0.6407   -1.8684 H   0  0  0  0  0  0  0  0  0  0  0  0
    2.5773   -0.9550   -2.8594 H   0  0  0  0  0  0  0  0  0  0  0  0
    0.4845   -2.3864   -2.8041 H   0  0  0  0  0  0  0  0  0  0  0  0
   -1.8721   -2.5423   -2.2258 H   0  0  0  0  0  0  0  0  0  0  0  0
   -3.6629    1.1653   -0.1928 H   0  0  0  0  0  0  0  0  0  0  0  0
   -5.7720   -0.9783   -0.1025 H   0  0  0  0  0  0  0  0  0  0  0  0
   -5.5798    1.7726    1.3716 H   0  0  0  0  0  0  0  0  0  0  0  0
   -5.0773    0.2738    2.1505 H   0  0  0  0  0  0  0  0  0  0  0  0
   -7.3790    0.9258    2.8006 H   0  0  0  0  0  0  0  0  0  0  0  0
   -7.8409    1.0675    1.0625 H   0  0  0  0  0  0  0  0  0  0  0  0
   -8.2712   -2.4545    3.0906 H   0  0  0  0  0  0  0  0  0  0  0  0
   -8.0946    0.9793   -1.9906 H   0  0  0  0  0  0  0  0  0  0  0  0
   -1.6701    1.1228   -0.1403 H   0  0  0  0  0  0  0  0  0  0  0  0
    0.6729    1.3538   -0.6876 H   0  0  0  0  0  0  0  0  0  0  0  0
    3.3527    1.8249    1.3404 H   0  0  0  0  0  0  0  0  0  0  0  0
  1  2  1  0
  2  3  2  0
  3  4  1  0
  4  5  2  0
  4  6  1  0
  6  7  2  0
  7  8  1  0
  7  9  1  0
  9 10  1  0
 10 11  1  0
 11 12  1  0
 12 13  1  0
 13 14  1  0
 14 15  2  0
 15 16  1  0
 16 17  2  0
 17 18  1  0
 18 19  2  0
 18 20  1  0
 20 21  1  0
 21 22  1  0
 22 23  1  0
 23 24  1  0
 24 25  2  0
 24 26  1  0
 21 27  1  0
 27 28  2  0
 27 29  1  0
 17 30  1  0
 30 31  2  0
 11 32  1  0
  8  2  1  0
 31 14  1  0
 32  6  1  0
  1 33  1  0
  1 34  1  0
  8 35  1  0
  9 36  1  0
 10 37  1  0
 10 38  1  0
 11 39  1  1
 12 40  1  0
 12 41  1  0
 13 42  1  0
 15 43  1  0
 16 44  1  0
 20 45  1  0
 21 46  1  1
 22 47  1  0
 22 48  1  0
 23 49  1  0
 23 50  1  0
 26 51  1  0
 29 52  1  0
 30 53  1  0
 31 54  1  0
 32 55  1  0
M  END
$$$$

     RDKit          3D

 55 57  0  0  0  0  0  0  0  0999 V2000
   -9.0975    1.4178   -1.0414 N   0  0  0  0  0  0  0  0  0  0  0  0
   -7.8044    0.8205   -1.0191 C   0  0  0  0  0  0  0  0  0  0  0  0
   -6.9654    0.8843   -2.0699 N   0  0  0  0  0  0  0  0  0  0  0  0
   -5.7443    0.3169   -2.0382 C   0  0  0  0  0  0  0  0  0  0  0  0
   -4.9571    0.3750   -3.0203 O   0  0  0  0  0  0  0  0  0  0  0  0
   -5.2876   -0.3642   -0.9175 C   0  0  0  0  0  0  0  0  0  0  0  0
   -6.1649   -0.4162    0.1437 C   0  0  0  0  0  0  0  0  0  0  0  0
   -7.3752    0.1602    0.0813 N   0  0  0  0  0  0  0  0  0  0  0  0
   -5.7056   -1.1169    1.2981 N   0  0  0  0  0  0  0  0  0  0  0  0
   -4.6437   -2.1003    1.1515 C   0  0  0  0  0  0  0  0  0  0  0  0
   -3.4895   -1.3688    0.4428 C   0  0  2  0  0  0  0  0  0  0  0  0
   -3.2829   -0.1052    1.2532 C   0  0  0  0  0  0  0  0  0  0  0  0
   -2.2425    0.7413    0.7671 N   0  0  0  0  0  0  0  0  0  0  0  0
   -0.8616    0.4422    0.7143 C   0  0  0  0  0  0  0  0  0  0  0  0
    0.0021    1.2826    0.0482 C   0  0  0  0  0  0  0  0  0  0  0  0
    1.3577    1.0468   -0.0326 C   0  0  0  0  0  0  0  0  0  0  0  0
    1.9164   -0.0585    0.5596 C   0  0  0  0  0  0  0  0  0  0  0  0
    3.3641   -0.3343    0.4844 C   0  0  0  0  0  0  0  0  0  0  0  0
    3.8084   -1.4686    0.7847 O   0  0  0  0  0  0  0  0  0  0  0  0
    4.2474    0.6711    0.0769 N   0  0  0  0  0  0  0  0  0  0  0  0
    5.6967    0.3746    0.0026 C   0  0  1  0  0  0  0  0  0  0  0  0
    6.1882    0.7903   -1.3470 C   0  0  0  0  0  0  0  0  0  0  0  0
    7.6530    0.5212   -1.5058 C   0  0  0  0  0  0  0  0  0  0  0  0
    7.9755   -0.9227   -1.3436 C   0  0  0  0  0  0  0  0  0  0  0  0
    7.3386   -1.7598   -2.0714 O   0  0  0  0  0  0  0  0  0  0  0  0
    8.9156   -1.3939   -0.4571 O   0  0  0  0  0  0  0  0  0  0  0  0
    6.3774    1.1231    1.1081 C   0  0  0  0  0  0  0  0  0  0  0  0
    5.7203    1.8980    1.8658 O   0  0  0  0  0  0  0  0  0  0  0  0
    7.7270    0.9735    1.3128 O   0  0  0  0  0  0  0  0  0  0  0  0
    1.0726   -0.9249    1.2388 C   0  0  0  0  0  0  0  0  0  0  0  0
   -0.2945   -0.6644    1.3066 C   0  0  0  0  0  0  0  0  0  0  0  0
   -4.0039   -0.9742   -0.8536 N   0  0  0  0  0  0  0  0  0  0  0  0
   -9.7430    1.1724   -1.8175 H   0  0  0  0  0  0  0  0  0  0  0  0
   -9.4421    2.0888   -0.3244 H   0  0  0  0  0  0  0  0  0  0  0  0
   -8.0130    0.0999    0.9160 H   0  0  0  0  0  0  0  0  0  0  0  0
   -6.1464   -0.9100    2.2265 H   0  0  0  0  0  0  0  0  0  0  0  0
   -4.9457   -2.9912    0.5879 H   0  0  0  0  0  0  0  0  0  0  0  0
   -4.2598   -2.3915    2.1453 H   0  0  0  0  0  0  0  0  0  0  0  0
   -2.6084   -2.0062    0.3726 H   0  0  0  0  0  0  0  0  0  0  0  0
   -3.0030   -0.3621    2.3176 H   0  0  0  0  0  0  0  0  0  0  0  0
   -4.2152    0.4777    1.3535 H   0  0  0  0  0  0  0  0  0  0  0  0
   -2.5371    1.6994    0.4097 H   0  0  0  0  0  0  0  0  0  0  0  0
   -0.4345    2.1687   -0.4296 H   0  0  0  0  0  0  0  0  0  0  0  0
    1.9910    1.7299   -0.5659 H   0  0  0  0  0  0  0  0  0  0  0  0
    3.9693    1.6451   -0.1879 H   0  0  0  0  0  0  0  0  0  0  0  0
    5.8026   -0.7056    0.1668 H   0  0  0  0  0  0  0  0  0  0  0  0
    5.5859    0.2267   -2.0981 H   0  0  0  0  0  0  0  0  0  0  0  0
    5.9366    1.8660   -1.4634 H   0  0  0  0  0  0  0  0  0  0  0  0
    7.9392    0.7973   -2.5857 H   0  0  0  0  0  0  0  0  0  0  0  0
    8.2283    1.1687   -0.8334 H   0  0  0  0  0  0  0  0  0  0  0  0
    9.2446   -2.3719   -0.4341 H   0  0  0  0  0  0  0  0  0  0  0  0
    8.0947    1.0088    2.2585 H   0  0  0  0  0  0  0  0  0  0  0  0
    1.5118   -1.8039    1.7138 H   0  0  0  0  0  0  0  0  0  0  0  0
   -0.9150   -1.3624    1.8553 H   0  0  0  0  0  0  0  0  0  0  0  0
   -3.4815   -1.1113   -1.7522 H   0  0  0  0  0  0  0  0  0  0  0  0
  1  2  1  0
  2  3  2  0
  3  4  1  0
  4  5  2  0
  4  6  1  0
  6  7  2  0
  7  8  1  0
  7  9  1  0
  9 10  1  0
 10 11  1  0
 11 12  1  0
 12 13  1  0
 13 14  1  0
 14 15  2  0
 15 16  1  0
 16 17  2  0
 17 18  1  0
 18 19  2  0
 18 20  1  0
 20 21  1  0
 21 22  1  0
 22 23  1  0
 23 24  1  0
 24 25  2  0
 24 26  1  0
 21 27  1  0
 27 28  2  0
 27 29  1  0
 17 30  1  0
 30 31  2  0
 11 32  1  0
  8  2  1  0
 31 14  1  0
 32  6  1  0
  1 33  1  0
  1 34  1  0
  8 35  1  0
  9 36  1  0
 10 37  1  0
 10 38  1  0
 11 39  1  6
 12 40  1  0
 12 41  1  0
 13 42  1  0
 15 43  1  0
 16 44  1  0
 20 45  1  0
 21 46  1  1
 22 47  1  0
 22 48  1  0
 23 49  1  0
 23 50  1  0
 26 51  1  0
 29 52  1  0
 30 53  1  0
 31 54  1  0
 32 55  1  0
M  END
$$$$

     RDKit          3D

 55 57  0  0  0  0  0  0  0  0999 V2000
   -8.9431    1.9568    1.4545 N   0  0  0  0  0  0  0  0  0  0  0  0
   -7.8196    1.4044    0.7693 C   0  0  0  0  0  0  0  0  0  0  0  0
   -7.0019    2.1720    0.0538 N   0  0  0  0  0  0  0  0  0  0  0  0
   -5.9417    1.6494   -0.5903 C   0  0  0  0  0  0  0  0  0  0  0  0
   -5.1656    2.3607   -1.2677 O   0  0  0  0  0  0  0  0  0  0  0  0
   -5.7284    0.2925   -0.4847 C   0  0  0  0  0  0  0  0  0  0  0  0
   -6.5804   -0.5041    0.2600 C   0  0  0  0  0  0  0  0  0  0  0  0
   -7.6213    0.0731    0.8798 N   0  0  0  0  0  0  0  0  0  0  0  0
   -6.3246   -1.8950    0.3506 N   0  0  0  0  0  0  0  0  0  0  0  0
   -5.0037   -2.4354    0.1663 C   0  0  0  0  0  0  0  0  0  0  0  0
   -4.1458   -1.6708   -0.7739 C   0  0  2  0  0  0  0  0  0  0  0  0
   -2.7956   -1.4159   -0.1003 C   0  0  0  0  0  0  0  0  0  0  0  0
   -1.9159   -0.6688   -0.9836 N   0  0  0  0  0  0  0  0  0  0  0  0
   -0.6389   -0.3021   -0.5170 C   0  0  0  0  0  0  0  0  0  0  0  0
    0.1904    0.4203   -1.3659 C   0  0  0  0  0  0  0  0  0  0  0  0
    1.4484    0.7803   -0.9205 C   0  0  0  0  0  0  0  0  0  0  0  0
    1.9078    0.4459    0.3411 C   0  0  0  0  0  0  0  0  0  0  0  0
    3.2582    0.8042    0.7888 C   0  0  0  0  0  0  0  0  0  0  0  0
    3.4084    1.4407    1.8519 O   0  0  0  0  0  0  0  0  0  0  0  0
    4.3663    0.4301    0.0284 N   0  0  0  0  0  0  0  0  0  0  0  0
    5.7608    0.7734    0.4615 C   0  0  1  0  0  0  0  0  0  0  0  0
    6.3897   -0.5082    0.8874 C   0  0  0  0  0  0  0  0  0  0  0  0
    7.7922   -0.4134    1.3681 C   0  0  0  0  0  0  0  0  0  0  0  0
    8.7092    0.0571    0.3332 C   0  0  0  0  0  0  0  0  0  0  0  0
    9.5685    0.9652    0.5927 O   0  0  0  0  0  0  0  0  0  0  0  0
    8.6730   -0.4647   -0.9350 O   0  0  0  0  0  0  0  0  0  0  0  0
    6.3983    1.4871   -0.6444 C   0  0  0  0  0  0  0  0  0  0  0  0
    6.1165    1.1556   -1.8536 O   0  0  0  0  0  0  0  0  0  0  0  0
    7.3055    2.5245   -0.5355 O   0  0  0  0  0  0  0  0  0  0  0  0
    1.0469   -0.2727    1.1508 C   0  0  0  0  0  0  0  0  0  0  0  0
   -0.2097   -0.6410    0.7242 C   0  0  0  0  0  0  0  0  0  0  0  0
   -4.6498   -0.3605   -1.1273 N   0  0  0  0  0  0  0  0  0  0  0  0
   -9.5947    2.5771    0.9510 H   0  0  0  0  0  0  0  0  0  0  0  0
   -9.0477    1.6894    2.4768 H   0  0  0  0  0  0  0  0  0  0  0  0
   -8.2770   -0.5381    1.4517 H   0  0  0  0  0  0  0  0  0  0  0  0
   -7.1051   -2.5337    0.5539 H   0  0  0  0  0  0  0  0  0  0  0  0
   -5.0615   -3.4921   -0.1976 H   0  0  0  0  0  0  0  0  0  0  0  0
   -4.5198   -2.4532    1.1695 H   0  0  0  0  0  0  0  0  0  0  0  0
   -4.0067   -2.2214   -1.7219 H   0  0  0  0  0  0  0  0  0  0  0  0
   -2.9243   -0.8016    0.8103 H   0  0  0  0  0  0  0  0  0  0  0  0
   -2.3578   -2.3649    0.2108 H   0  0  0  0  0  0  0  0  0  0  0  0
   -2.2712   -0.4368   -1.9353 H   0  0  0  0  0  0  0  0  0  0  0  0
   -0.1579    0.6896   -2.3549 H   0  0  0  0  0  0  0  0  0  0  0  0
    2.1237    1.3482   -1.5524 H   0  0  0  0  0  0  0  0  0  0  0  0
    4.2171   -0.1001   -0.8568 H   0  0  0  0  0  0  0  0  0  0  0  0
    5.7035    1.4265    1.3538 H   0  0  0  0  0  0  0  0  0  0  0  0
    6.2789   -1.2942    0.0830 H   0  0  0  0  0  0  0  0  0  0  0  0
    5.7775   -0.9486    1.7347 H   0  0  0  0  0  0  0  0  0  0  0  0
    7.8645    0.2505    2.2806 H   0  0  0  0  0  0  0  0  0  0  0  0
    8.1737   -1.4082    1.7266 H   0  0  0  0  0  0  0  0  0  0  0  0
    9.5246   -0.6471   -1.4756 H   0  0  0  0  0  0  0  0  0  0  0  0
    7.4535    3.2179   -1.2770 H   0  0  0  0  0  0  0  0  0  0  0  0
    1.3830   -0.5492    2.1536 H   0  0  0  0  0  0  0  0  0  0  0  0
   -0.8411   -1.1982    1.3892 H   0  0  0  0  0  0  0  0  0  0  0  0
   -4.1895    0.1472   -1.9072 H   0  0  0  0  0  0  0  0  0  0  0  0
  1  2  1  0
  2  3  2  0
  3  4  1  0
  4  5  2  0
  4  6  1  0
  6  7  2  0
  7  8  1  0
  7  9  1  0
  9 10  1  0
 10 11  1  0
 11 12  1  0
 12 13  1  0
 13 14  1  0
 14 15  2  0
 15 16  1  0
 16 17  2  0
 17 18  1  0
 18 19  2  0
 18 20  1  0
 20 21  1  0
 21 22  1  0
 22 23  1  0
 23 24  1  0
 24 25  2  0
 24 26  1  0
 21 27  1  0
 27 28  2  0
 27 29  1  0
 17 30  1  0
 30 31  2  0
 11 32  1  0
  8  2  1  0
 31 14  1  0
 32  6  1  0
  1 33  1  0
  1 34  1  0
  8 35  1  0
  9 36  1  0
 10 37  1  0
 10 38  1  0
 11 39  1  6
 12 40  1  0
 12 41  1  0
 13 42  1  0
 15 43  1  0
 16 44  1  0
 20 45  1  0
 21 46  1  1
 22 47  1  0
 22 48  1  0
 23 49  1  0
 23 50  1  0
 26 51  1  0
 29 52  1  0
 30 53  1  0
 31 54  1  0
 32 55  1  0
M  END
$$$$

     RDKit          3D

 55 57  0  0  0  0  0  0  0  0999 V2000
  -10.0960   -1.0705   -0.6189 N   0  0  0  0  0  0  0  0  0  0  0  0
   -8.7290   -1.0138   -0.2422 C   0  0  0  0  0  0  0  0  0  0  0  0
   -8.1227   -2.0637    0.3846 N   0  0  0  0  0  0  0  0  0  0  0  0
   -6.8078   -1.9348    0.7134 C   0  0  0  0  0  0  0  0  0  0  0  0
   -6.2435   -2.8905    1.2874 O   0  0  0  0  0  0  0  0  0  0  0  0
   -6.0936   -0.8120    0.4411 C   0  0  0  0  0  0  0  0  0  0  0  0
   -6.7668    0.2300   -0.2021 C   0  0  0  0  0  0  0  0  0  0  0  0
   -8.0773    0.1246   -0.5397 N   0  0  0  0  0  0  0  0  0  0  0  0
   -6.0673    1.4189   -0.5088 N   0  0  0  0  0  0  0  0  0  0  0  0
   -4.6274    1.4015   -0.4949 C   0  0  0  0  0  0  0  0  0  0  0  0
   -4.2274    0.7073    0.8097 C   0  0  2  0  0  0  0  0  0  0  0  0
   -2.7723    0.8648    0.9859 C   0  0  0  0  0  0  0  0  0  0  0  0
   -1.9408    0.3237   -0.0293 N   0  0  0  0  0  0  0  0  0  0  0  0
   -0.5288    0.4533    0.1121 C   0  0  0  0  0  0  0  0  0  0  0  0
    0.0363    1.1165    1.1829 C   0  0  0  0  0  0  0  0  0  0  0  0
    1.4044    1.2350    1.3209 C   0  0  0  0  0  0  0  0  0  0  0  0
    2.2885    0.6983    0.3976 C   0  0  0  0  0  0  0  0  0  0  0  0
    3.7333    0.8341    0.5612 C   0  0  0  0  0  0  0  0  0  0  0  0
    4.1893    1.6222    1.4274 O   0  0  0  0  0  0  0  0  0  0  0  0
    4.6468    0.1074   -0.2219 N   0  0  0  0  0  0  0  0  0  0  0  0
    6.1154    0.2750   -0.0219 C   0  0  1  0  0  0  0  0  0  0  0  0
    6.5375   -1.0243    0.5791 C   0  0  0  0  0  0  0  0  0  0  0  0
    7.9574   -1.2124    0.9049 C   0  0  0  0  0  0  0  0  0  0  0  0
    8.8320   -1.2298   -0.2711 C   0  0  0  0  0  0  0  0  0  0  0  0
    9.9940   -0.7137   -0.2635 O   0  0  0  0  0  0  0  0  0  0  0  0
    8.4346   -1.8244   -1.4755 O   0  0  0  0  0  0  0  0  0  0  0  0
    6.6633    0.6834   -1.2860 C   0  0  0  0  0  0  0  0  0  0  0  0
    5.9210    0.6684   -2.3340 O   0  0  0  0  0  0  0  0  0  0  0  0
    7.9604    1.1174   -1.5076 O   0  0  0  0  0  0  0  0  0  0  0  0
    1.7222    0.0374   -0.6700 C   0  0  0  0  0  0  0  0  0  0  0  0
    0.3548   -0.0813   -0.8082 C   0  0  0  0  0  0  0  0  0  0  0  0
   -4.7201   -0.6266    0.7618 N   0  0  0  0  0  0  0  0  0  0  0  0
  -10.4080   -1.8285   -1.2504 H   0  0  0  0  0  0  0  0  0  0  0  0
  -10.8060   -0.3859   -0.2913 H   0  0  0  0  0  0  0  0  0  0  0  0
   -8.5751    0.9200   -1.0253 H   0  0  0  0  0  0  0  0  0  0  0  0
   -6.5643    2.2927   -0.7407 H   0  0  0  0  0  0  0  0  0  0  0  0
   -4.1697    2.4072   -0.4571 H   0  0  0  0  0  0  0  0  0  0  0  0
   -4.2042    0.7958   -1.3222 H   0  0  0  0  0  0  0  0  0  0  0  0
   -4.7787    1.2601    1.6064 H   0  0  0  0  0  0  0  0  0  0  0  0
   -2.4856    0.3515    1.9512 H   0  0  0  0  0  0  0  0  0  0  0  0
   -2.5054    1.9284    1.1466 H   0  0  0  0  0  0  0  0  0  0  0  0
   -2.2914   -0.1649   -0.8771 H   0  0  0  0  0  0  0  0  0  0  0  0
   -0.6505    1.5416    1.9133 H   0  0  0  0  0  0  0  0  0  0  0  0
    1.8469    1.7647    2.1769 H   0  0  0  0  0  0  0  0  0  0  0  0
    4.3477   -0.5495   -0.9419 H   0  0  0  0  0  0  0  0  0  0  0  0
    6.2498    1.0805    0.7688 H   0  0  0  0  0  0  0  0  0  0  0  0
    6.1511   -1.8365   -0.1242 H   0  0  0  0  0  0  0  0  0  0  0  0
    5.9221   -1.2409    1.5170 H   0  0  0  0  0  0  0  0  0  0  0  0
    8.1054   -2.1757    1.4851 H   0  0  0  0  0  0  0  0  0  0  0  0
    8.2994   -0.3833    1.6011 H   0  0  0  0  0  0  0  0  0  0  0  0
    9.1113   -1.9726   -2.2407 H   0  0  0  0  0  0  0  0  0  0  0  0
    8.3163    1.2673   -2.4462 H   0  0  0  0  0  0  0  0  0  0  0  0
    2.3853   -0.3897   -1.4055 H   0  0  0  0  0  0  0  0  0  0  0  0
   -0.1001   -0.6031   -1.6515 H   0  0  0  0  0  0  0  0  0  0  0  0
   -4.1667   -1.5005    0.9420 H   0  0  0  0  0  0  0  0  0  0  0  0
  1  2  1  0
  2  3  2  0
  3  4  1  0
  4  5  2  0
  4  6  1  0
  6  7  2  0
  7  8  1  0
  7  9  1  0
  9 10  1  0
 10 11  1  0
 11 12  1  0
 12 13  1  0
 13 14  1  0
 14 15  2  0
 15 16  1  0
 16 17  2  0
 17 18  1  0
 18 19  2  0
 18 20  1  0
 20 21  1  0
 21 22  1  0
 22 23  1  0
 23 24  1  0
 24 25  2  0
 24 26  1  0
 21 27  1  0
 27 28  2  0
 27 29  1  0
 17 30  1  0
 30 31  2  0
 11 32  1  0
  8  2  1  0
 31 14  1  0
 32  6  1  0
  1 33  1  0
  1 34  1  0
  8 35  1  0
  9 36  1  0
 10 37  1  0
 10 38  1  0
 11 39  1  1
 12 40  1  0
 12 41  1  0
 13 42  1  0
 15 43  1  0
 16 44  1  0
 20 45  1  0
 21 46  1  1
 22 47  1  0
 22 48  1  0
 23 49  1  0
 23 50  1  0
 26 51  1  0
 29 52  1  0
 30 53  1  0
 31 54  1  0
 32 55  1  0
M  END
$$$$

     RDKit          3D

 55 57  0  0  0  0  0  0  0  0999 V2000
    9.7234    0.3165   -0.3988 N   0  0  0  0  0  0  0  0  0  0  0  0
    8.4006    0.3576    0.1450 C   0  0  0  0  0  0  0  0  0  0  0  0
    8.0946    1.1568    1.1726 N   0  0  0  0  0  0  0  0  0  0  0  0
    6.8464    1.2126    1.6944 C   0  0  0  0  0  0  0  0  0  0  0  0
    6.5443    1.9584    2.6594 O   0  0  0  0  0  0  0  0  0  0  0  0
    5.8359    0.4337    1.1734 C   0  0  0  0  0  0  0  0  0  0  0  0
    6.1545   -0.3936    0.1096 C   0  0  0  0  0  0  0  0  0  0  0  0
    7.4212   -0.4077   -0.3710 N   0  0  0  0  0  0  0  0  0  0  0  0
    5.1199   -1.1898   -0.4196 N   0  0  0  0  0  0  0  0  0  0  0  0
    3.7775   -1.2688    0.1138 C   0  0  0  0  0  0  0  0  0  0  0  0
    3.3936    0.0074    0.8518 C   0  0  2  0  0  0  0  0  0  0  0  0
    3.1245    1.0590   -0.1784 C   0  0  0  0  0  0  0  0  0  0  0  0
    2.0802    0.7235   -1.0894 N   0  0  0  0  0  0  0  0  0  0  0  0
    0.7268    0.5837   -0.6828 C   0  0  0  0  0  0  0  0  0  0  0  0
   -0.2155   -0.0070   -1.5293 C   0  0  0  0  0  0  0  0  0  0  0  0
   -1.5438   -0.1557   -1.1983 C   0  0  0  0  0  0  0  0  0  0  0  0
   -1.9784    0.2968    0.0273 C   0  0  0  0  0  0  0  0  0  0  0  0
   -3.3491    0.1767    0.4616 C   0  0  0  0  0  0  0  0  0  0  0  0
   -3.7131    0.7493    1.5235 O   0  0  0  0  0  0  0  0  0  0  0  0
   -4.2864   -0.5611   -0.2662 N   0  0  0  0  0  0  0  0  0  0  0  0
   -5.6489   -0.6599    0.1966 C   0  0  1  0  0  0  0  0  0  0  0  0
   -6.5195   -0.0791   -0.8834 C   0  0  0  0  0  0  0  0  0  0  0  0
   -7.9821   -0.0914   -0.5978 C   0  0  0  0  0  0  0  0  0  0  0  0
   -8.3539    0.6810    0.6097 C   0  0  0  0  0  0  0  0  0  0  0  0
   -7.8821    0.4730    1.7624 O   0  0  0  0  0  0  0  0  0  0  0  0
   -9.2813    1.7189    0.5187 O   0  0  0  0  0  0  0  0  0  0  0  0
   -5.9561   -2.0742    0.4724 C   0  0  0  0  0  0  0  0  0  0  0  0
   -5.0664   -2.9382    0.2787 O   0  0  0  0  0  0  0  0  0  0  0  0
   -7.1834   -2.5203    0.9392 O   0  0  0  0  0  0  0  0  0  0  0  0
   -1.0756    0.8859    0.8889 C   0  0  0  0  0  0  0  0  0  0  0  0
    0.2357    1.0167    0.5262 C   0  0  0  0  0  0  0  0  0  0  0  0
    4.5033    0.4497    1.6771 N   0  0  0  0  0  0  0  0  0  0  0  0
   10.4133   -0.4054   -0.1277 H   0  0  0  0  0  0  0  0  0  0  0  0
    9.9892    1.0451   -1.0936 H   0  0  0  0  0  0  0  0  0  0  0  0
    7.6453   -1.0414   -1.1771 H   0  0  0  0  0  0  0  0  0  0  0  0
    5.3295   -1.7787   -1.2664 H   0  0  0  0  0  0  0  0  0  0  0  0
    3.0518   -1.3847   -0.7132 H   0  0  0  0  0  0  0  0  0  0  0  0
    3.6962   -2.1437    0.7838 H   0  0  0  0  0  0  0  0  0  0  0  0
    2.5109   -0.2065    1.4569 H   0  0  0  0  0  0  0  0  0  0  0  0
    2.9566    2.0570    0.3066 H   0  0  0  0  0  0  0  0  0  0  0  0
    4.0902    1.1977   -0.7476 H   0  0  0  0  0  0  0  0  0  0  0  0
    2.2979    0.5672   -2.1117 H   0  0  0  0  0  0  0  0  0  0  0  0
    0.1475   -0.3581   -2.4959 H   0  0  0  0  0  0  0  0  0  0  0  0
   -2.2411   -0.6240   -1.9005 H   0  0  0  0  0  0  0  0  0  0  0  0
   -4.0255   -1.0434   -1.1386 H   0  0  0  0  0  0  0  0  0  0  0  0
   -5.7380   -0.0829    1.1429 H   0  0  0  0  0  0  0  0  0  0  0  0
   -6.2211    1.0118   -0.9417 H   0  0  0  0  0  0  0  0  0  0  0  0
   -6.2453   -0.5158   -1.8467 H   0  0  0  0  0  0  0  0  0  0  0  0
   -8.4953    0.3793   -1.4709 H   0  0  0  0  0  0  0  0  0  0  0  0
   -8.3921   -1.1317   -0.5577 H   0  0  0  0  0  0  0  0  0  0  0  0
   -9.2619    2.5096    1.1729 H   0  0  0  0  0  0  0  0  0  0  0  0
   -7.2723   -3.4873    1.2789 H   0  0  0  0  0  0  0  0  0  0  0  0
   -1.4068    1.2550    1.8781 H   0  0  0  0  0  0  0  0  0  0  0  0
    0.9045    1.4968    1.2463 H   0  0  0  0  0  0  0  0  0  0  0  0
    4.3195    0.7736    2.6306 H   0  0  0  0  0  0  0  0  0  0  0  0
  1  2  1  0
  2  3  2  0
  3  4  1  0
  4  5  2  0
  4  6  1  0
  6  7  2  0
  7  8  1  0
  7  9  1  0
  9 10  1  0
 10 11  1  0
 11 12  1  0
 12 13  1  0
 13 14  1  0
 14 15  2  0
 15 16  1  0
 16 17  2  0
 17 18  1  0
 18 19  2  0
 18 20  1  0
 20 21  1  0
 21 22  1  0
 22 23  1  0
 23 24  1  0
 24 25  2  0
 24 26  1  0
 21 27  1  0
 27 28  2  0
 27 29  1  0
 17 30  1  0
 30 31  2  0
 11 32  1  0
  8  2  1  0
 31 14  1  0
 32  6  1  0
  1 33  1  0
  1 34  1  0
  8 35  1  0
  9 36  1  0
 10 37  1  0
 10 38  1  0
 11 39  1  1
 12 40  1  0
 12 41  1  0
 13 42  1  0
 15 43  1  0
 16 44  1  0
 20 45  1  0
 21 46  1  1
 22 47  1  0
 22 48  1  0
 23 49  1  0
 23 50  1  0
 26 51  1  0
 29 52  1  0
 30 53  1  0
 31 54  1  0
 32 55  1  0
M  END
$$$$

     RDKit          3D

 55 57  0  0  0  0  0  0  0  0999 V2000
    9.6302    0.1425    0.9252 N   0  0  0  0  0  0  0  0  0  0  0  0
    8.2892    0.4698    0.5975 C   0  0  0  0  0  0  0  0  0  0  0  0
    8.0030    1.2630   -0.4481 N   0  0  0  0  0  0  0  0  0  0  0  0
    6.7463    1.6047   -0.8004 C   0  0  0  0  0  0  0  0  0  0  0  0
    6.4822    2.3544   -1.7894 O   0  0  0  0  0  0  0  0  0  0  0  0
    5.6995    1.1214   -0.0574 C   0  0  0  0  0  0  0  0  0  0  0  0
    5.9711    0.3025    1.0246 C   0  0  0  0  0  0  0  0  0  0  0  0
    7.2525   -0.0009    1.3228 N   0  0  0  0  0  0  0  0  0  0  0  0
    4.8509   -0.1632    1.7556 N   0  0  0  0  0  0  0  0  0  0  0  0
    3.4877   -0.1439    1.3090 C   0  0  0  0  0  0  0  0  0  0  0  0
    3.2247    0.5720    0.0297 C   0  0  2  0  0  0  0  0  0  0  0  0
    3.0582   -0.4490   -1.0677 C   0  0  0  0  0  0  0  0  0  0  0  0
    1.9910   -1.3450   -0.7910 N   0  0  0  0  0  0  0  0  0  0  0  0
    0.6430   -0.9872   -0.6445 C   0  0  0  0  0  0  0  0  0  0  0  0
    0.0805   -0.2238    0.3260 C   0  0  0  0  0  0  0  0  0  0  0  0
   -1.2834    0.0729    0.3440 C   0  0  0  0  0  0  0  0  0  0  0  0
   -2.1328   -0.3957   -0.6244 C   0  0  0  0  0  0  0  0  0  0  0  0
   -3.5708   -0.0979   -0.6149 C   0  0  0  0  0  0  0  0  0  0  0  0
   -4.0156    0.9493   -1.1229 O   0  0  0  0  0  0  0  0  0  0  0  0
   -4.4342   -1.0165   -0.0223 N   0  0  0  0  0  0  0  0  0  0  0  0
   -5.8342   -1.0139    0.1649 C   0  0  1  0  0  0  0  0  0  0  0  0
   -6.6226    0.1969   -0.2097 C   0  0  0  0  0  0  0  0  0  0  0  0
   -6.2863    1.3733    0.6294 C   0  0  0  0  0  0  0  0  0  0  0  0
   -7.0540    2.5960    0.1953 C   0  0  0  0  0  0  0  0  0  0  0  0
   -6.6083    3.2520   -0.7923 O   0  0  0  0  0  0  0  0  0  0  0  0
   -8.2054    3.0380    0.8072 O   0  0  0  0  0  0  0  0  0  0  0  0
   -6.4347   -2.3006   -0.1254 C   0  0  0  0  0  0  0  0  0  0  0  0
   -5.6836   -3.2553   -0.5028 O   0  0  0  0  0  0  0  0  0  0  0  0
   -7.7915   -2.5858   -0.0232 O   0  0  0  0  0  0  0  0  0  0  0  0
   -1.5691   -1.1708   -1.6115 C   0  0  0  0  0  0  0  0  0  0  0  0
   -0.2262   -1.4691   -1.6394 C   0  0  0  0  0  0  0  0  0  0  0  0
    4.3615    1.4250   -0.3528 N   0  0  0  0  0  0  0  0  0  0  0  0
   10.0842   -0.6344    0.4056 H   0  0  0  0  0  0  0  0  0  0  0  0
   10.1878    0.6284    1.6507 H   0  0  0  0  0  0  0  0  0  0  0  0
    7.4398   -0.6223    2.1452 H   0  0  0  0  0  0  0  0  0  0  0  0
    5.0732   -0.5546    2.7118 H   0  0  0  0  0  0  0  0  0  0  0  0
    2.8679    0.3547    2.1130 H   0  0  0  0  0  0  0  0  0  0  0  0
    3.0871   -1.1978    1.2934 H   0  0  0  0  0  0  0  0  0  0  0  0
    2.3237    1.2011    0.0525 H   0  0  0  0  0  0  0  0  0  0  0  0
    2.8782    0.1086   -2.0447 H   0  0  0  0  0  0  0  0  0  0  0  0
    4.0349   -0.9794   -1.2420 H   0  0  0  0  0  0  0  0  0  0  0  0
    2.2889   -2.3815   -0.6931 H   0  0  0  0  0  0  0  0  0  0  0  0
    0.6562    0.1694    1.1430 H   0  0  0  0  0  0  0  0  0  0  0  0
   -1.7021    0.6861    1.1306 H   0  0  0  0  0  0  0  0  0  0  0  0
   -3.9606   -1.9087    0.3768 H   0  0  0  0  0  0  0  0  0  0  0  0
   -5.9040   -0.9076    1.3503 H   0  0  0  0  0  0  0  0  0  0  0  0
   -6.6235    0.4048   -1.3018 H   0  0  0  0  0  0  0  0  0  0  0  0
   -7.6995   -0.0701    0.0160 H   0  0  0  0  0  0  0  0  0  0  0  0
   -5.2685    1.5711    0.9191 H   0  0  0  0  0  0  0  0  0  0  0  0
   -6.7847    1.1638    1.6656 H   0  0  0  0  0  0  0  0  0  0  0  0
   -8.8970    3.5486    0.2623 H   0  0  0  0  0  0  0  0  0  0  0  0
   -8.1441   -3.3732   -0.5514 H   0  0  0  0  0  0  0  0  0  0  0  0
   -2.2566   -1.5423   -2.3835 H   0  0  0  0  0  0  0  0  0  0  0  0
    0.1717   -2.0773   -2.4281 H   0  0  0  0  0  0  0  0  0  0  0  0
    4.1280    2.2969   -0.8732 H   0  0  0  0  0  0  0  0  0  0  0  0
  1  2  1  0
  2  3  2  0
  3  4  1  0
  4  5  2  0
  4  6  1  0
  6  7  2  0
  7  8  1  0
  7  9  1  0
  9 10  1  0
 10 11  1  0
 11 12  1  0
 12 13  1  0
 13 14  1  0
 14 15  2  0
 15 16  1  0
 16 17  2  0
 17 18  1  0
 18 19  2  0
 18 20  1  0
 20 21  1  0
 21 22  1  0
 22 23  1  0
 23 24  1  0
 24 25  2  0
 24 26  1  0
 21 27  1  0
 27 28  2  0
 27 29  1  0
 17 30  1  0
 30 31  2  0
 11 32  1  0
  8  2  1  0
 31 14  1  0
 32  6  1  0
  1 33  1  0
  1 34  1  0
  8 35  1  0
  9 36  1  0
 10 37  1  0
 10 38  1  0
 11 39  1  1
 12 40  1  0
 12 41  1  0
 13 42  1  0
 15 43  1  0
 16 44  1  0
 20 45  1  0
 21 46  1  1
 22 47  1  0
 22 48  1  0
 23 49  1  0
 23 50  1  0
 26 51  1  0
 29 52  1  0
 30 53  1  0
 31 54  1  0
 32 55  1  0
M  END
$$$$

     RDKit          3D

 55 57  0  0  0  0  0  0  0  0999 V2000
    9.1915    1.3031    1.3114 N   0  0  0  0  0  0  0  0  0  0  0  0
    7.7656    1.1589    1.2788 C   0  0  0  0  0  0  0  0  0  0  0  0
    6.9932    1.9474    2.0701 N   0  0  0  0  0  0  0  0  0  0  0  0
    5.6564    1.8727    2.0851 C   0  0  0  0  0  0  0  0  0  0  0  0
    4.9354    2.6015    2.8165 O   0  0  0  0  0  0  0  0  0  0  0  0
    5.0501    0.9431    1.2493 C   0  0  0  0  0  0  0  0  0  0  0  0
    5.8348    0.1398    0.4449 C   0  0  0  0  0  0  0  0  0  0  0  0
    7.1923    0.2559    0.4677 N   0  0  0  0  0  0  0  0  0  0  0  0
    5.2244   -0.8130   -0.4152 N   0  0  0  0  0  0  0  0  0  0  0  0
    3.8942   -1.2852   -0.0723 C   0  0  0  0  0  0  0  0  0  0  0  0
    3.0440   -0.0802    0.2585 C   0  0  2  0  0  0  0  0  0  0  0  0
    2.7723    0.5895   -1.0963 C   0  0  0  0  0  0  0  0  0  0  0  0
    2.0590   -0.4149   -1.8717 N   0  0  0  0  0  0  0  0  0  0  0  0
    0.7492   -0.7694   -1.4165 C   0  0  0  0  0  0  0  0  0  0  0  0
   -0.3119    0.1137   -1.6611 C   0  0  0  0  0  0  0  0  0  0  0  0
   -1.5934   -0.1489   -1.2337 C   0  0  0  0  0  0  0  0  0  0  0  0
   -1.8715   -1.3086   -0.5412 C   0  0  0  0  0  0  0  0  0  0  0  0
   -3.2173   -1.6224   -0.0725 C   0  0  0  0  0  0  0  0  0  0  0  0
   -3.3857   -2.6390    0.6632 O   0  0  0  0  0  0  0  0  0  0  0  0
   -4.3672   -0.8734   -0.3766 N   0  0  0  0  0  0  0  0  0  0  0  0
   -5.7057   -1.1731    0.0813 C   0  0  1  0  0  0  0  0  0  0  0  0
   -6.2066   -0.0664    1.0016 C   0  0  0  0  0  0  0  0  0  0  0  0
   -6.2192    1.2523    0.2550 C   0  0  0  0  0  0  0  0  0  0  0  0
   -6.7057    2.3092    1.1469 C   0  0  0  0  0  0  0  0  0  0  0  0
   -7.0407    2.0659    2.3427 O   0  0  0  0  0  0  0  0  0  0  0  0
   -6.7889    3.6047    0.6311 O   0  0  0  0  0  0  0  0  0  0  0  0
   -6.6471   -1.4056   -1.0118 C   0  0  0  0  0  0  0  0  0  0  0  0
   -6.2504   -1.3251   -2.2013 O   0  0  0  0  0  0  0  0  0  0  0  0
   -7.9768   -1.7168   -0.8073 O   0  0  0  0  0  0  0  0  0  0  0  0
   -0.8278   -2.1793   -0.2996 C   0  0  0  0  0  0  0  0  0  0  0  0
    0.4598   -1.9195   -0.7266 C   0  0  0  0  0  0  0  0  0  0  0  0
    3.6284    0.8119    1.2114 N   0  0  0  0  0  0  0  0  0  0  0  0
    9.5786    2.2408    1.0368 H   0  0  0  0  0  0  0  0  0  0  0  0
    9.7979    0.5253    1.5883 H   0  0  0  0  0  0  0  0  0  0  0  0
    7.7509   -0.3751   -0.1596 H   0  0  0  0  0  0  0  0  0  0  0  0
    5.7490   -1.1295   -1.2521 H   0  0  0  0  0  0  0  0  0  0  0  0
    3.4220   -1.7761   -0.9579 H   0  0  0  0  0  0  0  0  0  0  0  0
    3.9209   -1.9513    0.8042 H   0  0  0  0  0  0  0  0  0  0  0  0
    2.0486   -0.3892    0.6688 H   0  0  0  0  0  0  0  0  0  0  0  0
    2.1084    1.4694   -0.9785 H   0  0  0  0  0  0  0  0  0  0  0  0
    3.7075    0.8527   -1.6086 H   0  0  0  0  0  0  0  0  0  0  0  0
    2.5046   -0.8245   -2.7053 H   0  0  0  0  0  0  0  0  0  0  0  0
   -0.0764    1.0366   -2.2180 H   0  0  0  0  0  0  0  0  0  0  0  0
   -2.3906    0.5861   -1.4600 H   0  0  0  0  0  0  0  0  0  0  0  0
   -4.2732   -0.0334   -0.9809 H   0  0  0  0  0  0  0  0  0  0  0  0
   -5.6124   -2.0847    0.7023 H   0  0  0  0  0  0  0  0  0  0  0  0
   -5.5389    0.0254    1.8669 H   0  0  0  0  0  0  0  0  0  0  0  0
   -7.2164   -0.3697    1.3325 H   0  0  0  0  0  0  0  0  0  0  0  0
   -6.8145    1.1074   -0.6646 H   0  0  0  0  0  0  0  0  0  0  0  0
   -5.1420    1.4935    0.0299 H   0  0  0  0  0  0  0  0  0  0  0  0
   -7.5003    4.2341    0.9957 H   0  0  0  0  0  0  0  0  0  0  0  0
   -8.6297   -1.5322   -1.5523 H   0  0  0  0  0  0  0  0  0  0  0  0
   -1.0558   -3.0956    0.2492 H   0  0  0  0  0  0  0  0  0  0  0  0
    1.2458   -2.6330   -0.5143 H   0  0  0  0  0  0  0  0  0  0  0  0
    3.0814    1.3945    1.9082 H   0  0  0  0  0  0  0  0  0  0  0  0
  1  2  1  0
  2  3  2  0
  3  4  1  0
  4  5  2  0
  4  6  1  0
  6  7  2  0
  7  8  1  0
  7  9  1  0
  9 10  1  0
 10 11  1  0
 11 12  1  0
 12 13  1  0
 13 14  1  0
 14 15  2  0
 15 16  1  0
 16 17  2  0
 17 18  1  0
 18 19  2  0
 18 20  1  0
 20 21  1  0
 21 22  1  0
 22 23  1  0
 23 24  1  0
 24 25  2  0
 24 26  1  0
 21 27  1  0
 27 28  2  0
 27 29  1  0
 17 30  1  0
 30 31  2  0
 11 32  1  0
  8  2  1  0
 31 14  1  0
 32  6  1  0
  1 33  1  0
  1 34  1  0
  8 35  1  0
  9 36  1  0
 10 37  1  0
 10 38  1  0
 11 39  1  1
 12 40  1  0
 12 41  1  0
 13 42  1  0
 15 43  1  0
 16 44  1  0
 20 45  1  0
 21 46  1  1
 22 47  1  0
 22 48  1  0
 23 49  1  0
 23 50  1  0
 26 51  1  0
 29 52  1  0
 30 53  1  0
 31 54  1  0
 32 55  1  0
M  END
$$$$

     RDKit          3D

 55 57  0  0  0  0  0  0  0  0999 V2000
    9.3564   -0.6378   -0.4702 N   0  0  0  0  0  0  0  0  0  0  0  0
    8.0008   -0.2503   -0.3438 C   0  0  0  0  0  0  0  0  0  0  0  0
    7.4215    0.5215   -1.3072 N   0  0  0  0  0  0  0  0  0  0  0  0
    6.1319    0.8910   -1.1853 C   0  0  0  0  0  0  0  0  0  0  0  0
    5.5823    1.6091   -2.0762 O   0  0  0  0  0  0  0  0  0  0  0  0
    5.3410    0.5242   -0.1126 C   0  0  0  0  0  0  0  0  0  0  0  0
    5.9487   -0.2560    0.8488 C   0  0  0  0  0  0  0  0  0  0  0  0
    7.2357   -0.6112    0.7041 N   0  0  0  0  0  0  0  0  0  0  0  0
    5.1624   -0.6460    1.9605 N   0  0  0  0  0  0  0  0  0  0  0  0
    3.8087   -0.2064    2.1204 C   0  0  0  0  0  0  0  0  0  0  0  0
    3.1019    0.0799    0.8168 C   0  0  2  0  0  0  0  0  0  0  0  0
    2.9453   -1.2087   -0.0105 C   0  0  0  0  0  0  0  0  0  0  0  0
    2.2444   -0.8248   -1.2278 N   0  0  0  0  0  0  0  0  0  0  0  0
    0.8892   -0.4301   -1.1368 C   0  0  0  0  0  0  0  0  0  0  0  0
    0.2758    0.1798   -2.2077 C   0  0  0  0  0  0  0  0  0  0  0  0
   -1.0402    0.5401   -2.1162 C   0  0  0  0  0  0  0  0  0  0  0  0
   -1.7794    0.3026   -0.9559 C   0  0  0  0  0  0  0  0  0  0  0  0
   -3.1990    0.7155   -0.9256 C   0  0  0  0  0  0  0  0  0  0  0  0
   -3.6954    1.2694   -1.9659 O   0  0  0  0  0  0  0  0  0  0  0  0
   -3.9449    0.4884    0.2288 N   0  0  0  0  0  0  0  0  0  0  0  0
   -5.3594    0.9266    0.1866 C   0  0  1  0  0  0  0  0  0  0  0  0
   -6.2209   -0.2802    0.3546 C   0  0  0  0  0  0  0  0  0  0  0  0
   -7.6885    0.0276    0.3048 C   0  0  0  0  0  0  0  0  0  0  0  0
   -8.4990   -1.2155    0.4785 C   0  0  0  0  0  0  0  0  0  0  0  0
   -8.2929   -1.9307    1.5006 O   0  0  0  0  0  0  0  0  0  0  0  0
   -9.4570   -1.6085   -0.4317 O   0  0  0  0  0  0  0  0  0  0  0  0
   -5.4808    1.9418    1.2473 C   0  0  0  0  0  0  0  0  0  0  0  0
   -4.5247    2.2515    1.9932 O   0  0  0  0  0  0  0  0  0  0  0  0
   -6.6737    2.6028    1.4631 O   0  0  0  0  0  0  0  0  0  0  0  0
   -1.1736   -0.3000    0.1017 C   0  0  0  0  0  0  0  0  0  0  0  0
    0.1673   -0.6662    0.0050 C   0  0  0  0  0  0  0  0  0  0  0  0
    3.9835    0.9164    0.0190 N   0  0  0  0  0  0  0  0  0  0  0  0
    9.6486   -1.5604   -0.1057 H   0  0  0  0  0  0  0  0  0  0  0  0
   10.0633   -0.0299   -0.9137 H   0  0  0  0  0  0  0  0  0  0  0  0
    7.6828   -1.2027    1.4433 H   0  0  0  0  0  0  0  0  0  0  0  0
    5.5729   -1.2770    2.7011 H   0  0  0  0  0  0  0  0  0  0  0  0
    3.8069    0.7435    2.6875 H   0  0  0  0  0  0  0  0  0  0  0  0
    3.2291   -0.9187    2.7533 H   0  0  0  0  0  0  0  0  0  0  0  0
    2.1531    0.5656    1.0391 H   0  0  0  0  0  0  0  0  0  0  0  0
    2.4047   -1.9880    0.5473 H   0  0  0  0  0  0  0  0  0  0  0  0
    3.9887   -1.5155   -0.2438 H   0  0  0  0  0  0  0  0  0  0  0  0
    2.7471   -0.8437   -2.1491 H   0  0  0  0  0  0  0  0  0  0  0  0
    0.8549    0.3651   -3.1170 H   0  0  0  0  0  0  0  0  0  0  0  0
   -1.5400    1.0227   -2.9513 H   0  0  0  0  0  0  0  0  0  0  0  0
   -3.6481    0.0573    1.1059 H   0  0  0  0  0  0  0  0  0  0  0  0
   -5.6043    1.4148   -0.7716 H   0  0  0  0  0  0  0  0  0  0  0  0
   -5.9418   -0.9008    1.2367 H   0  0  0  0  0  0  0  0  0  0  0  0
   -6.0288   -0.9374   -0.5476 H   0  0  0  0  0  0  0  0  0  0  0  0
   -7.9848    0.7940    1.0367 H   0  0  0  0  0  0  0  0  0  0  0  0
   -7.9270    0.4205   -0.7092 H   0  0  0  0  0  0  0  0  0  0  0  0
   -9.8233   -2.5487   -0.5182 H   0  0  0  0  0  0  0  0  0  0  0  0
   -6.7417    3.4732    1.9692 H   0  0  0  0  0  0  0  0  0  0  0  0
   -1.7314   -0.4926    1.0199 H   0  0  0  0  0  0  0  0  0  0  0  0
    0.5755   -1.1461    0.8793 H   0  0  0  0  0  0  0  0  0  0  0  0
    3.6761    1.7888   -0.4626 H   0  0  0  0  0  0  0  0  0  0  0  0
  1  2  1  0
  2  3  2  0
  3  4  1  0
  4  5  2  0
  4  6  1  0
  6  7  2  0
  7  8  1  0
  7  9  1  0
  9 10  1  0
 10 11  1  0
 11 12  1  0
 12 13  1  0
 13 14  1  0
 14 15  2  0
 15 16  1  0
 16 17  2  0
 17 18  1  0
 18 19  2  0
 18 20  1  0
 20 21  1  0
 21 22  1  0
 22 23  1  0
 23 24  1  0
 24 25  2  0
 24 26  1  0
 21 27  1  0
 27 28  2  0
 27 29  1  0
 17 30  1  0
 30 31  2  0
 11 32  1  0
  8  2  1  0
 31 14  1  0
 32  6  1  0
  1 33  1  0
  1 34  1  0
  8 35  1  0
  9 36  1  0
 10 37  1  0
 10 38  1  0
 11 39  1  1
 12 40  1  0
 12 41  1  0
 13 42  1  0
 15 43  1  0
 16 44  1  0
 20 45  1  0
 21 46  1  6
 22 47  1  0
 22 48  1  0
 23 49  1  0
 23 50  1  0
 26 51  1  0
 29 52  1  0
 30 53  1  0
 31 54  1  0
 32 55  1  0
M  END
$$$$

     RDKit          3D

 55 57  0  0  0  0  0  0  0  0999 V2000
   -9.7887    0.6582    0.6697 N   0  0  0  0  0  0  0  0  0  0  0  0
   -8.4085    0.6873    0.3550 C   0  0  0  0  0  0  0  0  0  0  0  0
   -7.7289    1.8337    0.5474 N   0  0  0  0  0  0  0  0  0  0  0  0
   -6.4239    1.8708    0.2565 C   0  0  0  0  0  0  0  0  0  0  0  0
   -5.7145    2.9038    0.4074 O   0  0  0  0  0  0  0  0  0  0  0  0
   -5.7971    0.7200   -0.2401 C   0  0  0  0  0  0  0  0  0  0  0  0
   -6.5114   -0.4363   -0.4278 C   0  0  0  0  0  0  0  0  0  0  0  0
   -7.8128   -0.4184   -0.1209 N   0  0  0  0  0  0  0  0  0  0  0  0
   -5.8289   -1.5659   -0.9251 N   0  0  0  0  0  0  0  0  0  0  0  0
   -4.3811   -1.6337   -1.0226 C   0  0  0  0  0  0  0  0  0  0  0  0
   -3.8695   -0.2914   -1.4351 C   0  0  2  0  0  0  0  0  0  0  0  0
   -2.3517   -0.2160   -1.3619 C   0  0  0  0  0  0  0  0  0  0  0  0
   -1.9562   -0.4610    0.0005 N   0  0  0  0  0  0  0  0  0  0  0  0
   -0.5700   -0.3868    0.3260 C   0  0  0  0  0  0  0  0  0  0  0  0
    0.3905   -0.1864   -0.6390 C   0  0  0  0  0  0  0  0  0  0  0  0
    1.7377   -0.0900   -0.3093 C   0  0  0  0  0  0  0  0  0  0  0  0
    2.1717   -0.1895    0.9892 C   0  0  0  0  0  0  0  0  0  0  0  0
    3.5682   -0.0659    1.3882 C   0  0  0  0  0  0  0  0  0  0  0  0
    3.8905   -0.1929    2.6215 O   0  0  0  0  0  0  0  0  0  0  0  0
    4.6007    0.1965    0.4673 N   0  0  0  0  0  0  0  0  0  0  0  0
    5.9665    0.3308    0.9177 C   0  0  1  0  0  0  0  0  0  0  0  0
    6.8417   -0.8124    0.5107 C   0  0  0  0  0  0  0  0  0  0  0  0
    6.9894   -1.0719   -0.9396 C   0  0  0  0  0  0  0  0  0  0  0  0
    7.5482    0.0762   -1.6440 C   0  0  0  0  0  0  0  0  0  0  0  0
    6.8550    0.8638   -2.3769 O   0  0  0  0  0  0  0  0  0  0  0  0
    8.8898    0.4072   -1.5742 O   0  0  0  0  0  0  0  0  0  0  0  0
    6.5048    1.6636    0.5559 C   0  0  0  0  0  0  0  0  0  0  0  0
    5.7647    2.4772   -0.0468 O   0  0  0  0  0  0  0  0  0  0  0  0
    7.7913    2.0248    0.8658 O   0  0  0  0  0  0  0  0  0  0  0  0
    1.2096   -0.3936    1.9740 C   0  0  0  0  0  0  0  0  0  0  0  0
   -0.1221   -0.4870    1.6291 C   0  0  0  0  0  0  0  0  0  0  0  0
   -4.4157    0.7265   -0.5514 N   0  0  0  0  0  0  0  0  0  0  0  0
  -10.4956    0.5434   -0.0752 H   0  0  0  0  0  0  0  0  0  0  0  0
  -10.0742    0.7541    1.6540 H   0  0  0  0  0  0  0  0  0  0  0  0
   -8.3719   -1.3020   -0.2614 H   0  0  0  0  0  0  0  0  0  0  0  0
   -6.3690   -2.3917   -1.2369 H   0  0  0  0  0  0  0  0  0  0  0  0
   -4.0958   -2.4066   -1.7811 H   0  0  0  0  0  0  0  0  0  0  0  0
   -4.0161   -2.0058   -0.0639 H   0  0  0  0  0  0  0  0  0  0  0  0
   -4.2145   -0.0987   -2.4703 H   0  0  0  0  0  0  0  0  0  0  0  0
   -1.9416   -0.9550   -2.0656 H   0  0  0  0  0  0  0  0  0  0  0  0
   -2.0387    0.8352   -1.6047 H   0  0  0  0  0  0  0  0  0  0  0  0
   -2.6786   -0.6821    0.7084 H   0  0  0  0  0  0  0  0  0  0  0  0
    0.0824   -0.1026   -1.6903 H   0  0  0  0  0  0  0  0  0  0  0  0
    2.4924    0.0680   -1.0823 H   0  0  0  0  0  0  0  0  0  0  0  0
    4.4355    0.3049   -0.5639 H   0  0  0  0  0  0  0  0  0  0  0  0
    5.9267    0.2505    2.0608 H   0  0  0  0  0  0  0  0  0  0  0  0
    7.8644   -0.7364    0.9709 H   0  0  0  0  0  0  0  0  0  0  0  0
    6.3936   -1.7303    0.9913 H   0  0  0  0  0  0  0  0  0  0  0  0
    7.7234   -1.9341   -1.0291 H   0  0  0  0  0  0  0  0  0  0  0  0
    6.0672   -1.4788   -1.4144 H   0  0  0  0  0  0  0  0  0  0  0  0
    9.3091    1.1716   -2.1180 H   0  0  0  0  0  0  0  0  0  0  0  0
    8.0673    3.0040    1.0479 H   0  0  0  0  0  0  0  0  0  0  0  0
    1.5515   -0.4748    3.0158 H   0  0  0  0  0  0  0  0  0  0  0  0
   -0.8421   -0.6485    2.4194 H   0  0  0  0  0  0  0  0  0  0  0  0
   -3.8150    1.4748   -0.1293 H   0  0  0  0  0  0  0  0  0  0  0  0
  1  2  1  0
  2  3  2  0
  3  4  1  0
  4  5  2  0
  4  6  1  0
  6  7  2  0
  7  8  1  0
  7  9  1  0
  9 10  1  0
 10 11  1  0
 11 12  1  0
 12 13  1  0
 13 14  1  0
 14 15  2  0
 15 16  1  0
 16 17  2  0
 17 18  1  0
 18 19  2  0
 18 20  1  0
 20 21  1  0
 21 22  1  0
 22 23  1  0
 23 24  1  0
 24 25  2  0
 24 26  1  0
 21 27  1  0
 27 28  2  0
 27 29  1  0
 17 30  1  0
 30 31  2  0
 11 32  1  0
  8  2  1  0
 31 14  1  0
 32  6  1  0
  1 33  1  0
  1 34  1  0
  8 35  1  0
  9 36  1  0
 10 37  1  0
 10 38  1  0
 11 39  1  6
 12 40  1  0
 12 41  1  0
 13 42  1  0
 15 43  1  0
 16 44  1  0
 20 45  1  0
 21 46  1  1
 22 47  1  0
 22 48  1  0
 23 49  1  0
 23 50  1  0
 26 51  1  0
 29 52  1  0
 30 53  1  0
 31 54  1  0
 32 55  1  0
M  END
$$$$

     RDKit          3D

 55 57  0  0  0  0  0  0  0  0999 V2000
    9.5955    0.8682    0.7560 N   0  0  0  0  0  0  0  0  0  0  0  0
    8.1724    0.7826    0.6579 C   0  0  0  0  0  0  0  0  0  0  0  0
    7.3860    1.8675    0.4120 N   0  0  0  0  0  0  0  0  0  0  0  0
    6.0626    1.7608    0.3208 C   0  0  0  0  0  0  0  0  0  0  0  0
    5.2853    2.7533    0.0933 O   0  0  0  0  0  0  0  0  0  0  0  0
    5.4273    0.5159    0.4796 C   0  0  0  0  0  0  0  0  0  0  0  0
    6.2382   -0.5665    0.7302 C   0  0  0  0  0  0  0  0  0  0  0  0
    7.5703   -0.4194    0.8138 N   0  0  0  0  0  0  0  0  0  0  0  0
    5.5959   -1.8220    0.8710 N   0  0  0  0  0  0  0  0  0  0  0  0
    4.2417   -2.1244    0.4634 C   0  0  0  0  0  0  0  0  0  0  0  0
    3.3664   -0.9233    0.3472 C   0  0  2  0  0  0  0  0  0  0  0  0
    2.5357   -0.9849   -0.9474 C   0  0  0  0  0  0  0  0  0  0  0  0
    1.6978    0.1677   -1.0460 N   0  0  0  0  0  0  0  0  0  0  0  0
    0.3136    0.2671   -1.0003 C   0  0  0  0  0  0  0  0  0  0  0  0
   -0.2918    1.3848   -0.4578 C   0  0  0  0  0  0  0  0  0  0  0  0
   -1.6223    1.6461   -0.4098 C   0  0  0  0  0  0  0  0  0  0  0  0
   -2.4938    0.6906   -0.9604 C   0  0  0  0  0  0  0  0  0  0  0  0
   -3.9382    0.9919   -0.9661 C   0  0  0  0  0  0  0  0  0  0  0  0
   -4.4470    1.0105   -2.1510 O   0  0  0  0  0  0  0  0  0  0  0  0
   -4.7281    1.2525    0.1454 N   0  0  0  0  0  0  0  0  0  0  0  0
   -6.1505    1.5961    0.0561 C   0  0  1  0  0  0  0  0  0  0  0  0
   -6.7323    0.2841   -0.6295 C   0  0  0  0  0  0  0  0  0  0  0  0
   -6.3057   -0.8589    0.2510 C   0  0  0  0  0  0  0  0  0  0  0  0
   -6.5926   -2.1999   -0.3427 C   0  0  0  0  0  0  0  0  0  0  0  0
   -7.1764   -2.2905   -1.4570 O   0  0  0  0  0  0  0  0  0  0  0  0
   -6.2217   -3.3653    0.3206 O   0  0  0  0  0  0  0  0  0  0  0  0
   -6.8224    1.6734    1.3085 C   0  0  0  0  0  0  0  0  0  0  0  0
   -7.8443    0.9572    1.5975 O   0  0  0  0  0  0  0  0  0  0  0  0
   -6.4407    2.5415    2.3938 O   0  0  0  0  0  0  0  0  0  0  0  0
   -1.9511   -0.4299   -1.5049 C   0  0  0  0  0  0  0  0  0  0  0  0
   -0.5961   -0.6551   -1.5342 C   0  0  0  0  0  0  0  0  0  0  0  0
    4.0378    0.3394    0.4062 N   0  0  0  0  0  0  0  0  0  0  0  0
   10.0621    0.8162    1.6657 H   0  0  0  0  0  0  0  0  0  0  0  0
   10.2426    0.9759   -0.0729 H   0  0  0  0  0  0  0  0  0  0  0  0
    8.1476   -1.3021    1.0124 H   0  0  0  0  0  0  0  0  0  0  0  0
    6.1583   -2.6010    1.2991 H   0  0  0  0  0  0  0  0  0  0  0  0
    3.8559   -2.8649    1.2199 H   0  0  0  0  0  0  0  0  0  0  0  0
    4.2982   -2.6501   -0.5037 H   0  0  0  0  0  0  0  0  0  0  0  0
    2.6498   -0.9597    1.1994 H   0  0  0  0  0  0  0  0  0  0  0  0
    2.0384   -1.9541   -0.9838 H   0  0  0  0  0  0  0  0  0  0  0  0
    3.2825   -0.9634   -1.7593 H   0  0  0  0  0  0  0  0  0  0  0  0
    2.2049    1.1064   -1.1882 H   0  0  0  0  0  0  0  0  0  0  0  0
    0.3869    2.1430   -0.0118 H   0  0  0  0  0  0  0  0  0  0  0  0
   -2.0061    2.5317    0.0342 H   0  0  0  0  0  0  0  0  0  0  0  0
   -4.3216    1.1949    1.0894 H   0  0  0  0  0  0  0  0  0  0  0  0
   -6.3828    2.3332   -0.6961 H   0  0  0  0  0  0  0  0  0  0  0  0
   -7.8184    0.4125   -0.4992 H   0  0  0  0  0  0  0  0  0  0  0  0
   -6.4828    0.2373   -1.6689 H   0  0  0  0  0  0  0  0  0  0  0  0
   -5.2669   -0.7437    0.5893 H   0  0  0  0  0  0  0  0  0  0  0  0
   -6.8974   -0.8852    1.2265 H   0  0  0  0  0  0  0  0  0  0  0  0
   -5.7143   -4.0740   -0.2404 H   0  0  0  0  0  0  0  0  0  0  0  0
   -6.2372    2.0761    3.3006 H   0  0  0  0  0  0  0  0  0  0  0  0
   -2.6237   -1.1806   -1.9404 H   0  0  0  0  0  0  0  0  0  0  0  0
   -0.1538   -1.5569   -1.9719 H   0  0  0  0  0  0  0  0  0  0  0  0
    3.4062    1.1975    0.3939 H   0  0  0  0  0  0  0  0  0  0  0  0
  1  2  1  0
  2  3  2  0
  3  4  1  0
  4  5  2  0
  4  6  1  0
  6  7  2  0
  7  8  1  0
  7  9  1  0
  9 10  1  0
 10 11  1  0
 11 12  1  0
 12 13  1  0
 13 14  1  0
 14 15  2  0
 15 16  1  0
 16 17  2  0
 17 18  1  0
 18 19  2  0
 18 20  1  0
 20 21  1  0
 21 22  1  0
 22 23  1  0
 23 24  1  0
 24 25  2  0
 24 26  1  0
 21 27  1  0
 27 28  2  0
 27 29  1  0
 17 30  1  0
 30 31  2  0
 11 32  1  0
  8  2  1  0
 31 14  1  0
 32  6  1  0
  1 33  1  0
  1 34  1  0
  8 35  1  0
  9 36  1  0
 10 37  1  0
 10 38  1  0
 11 39  1  1
 12 40  1  0
 12 41  1  0
 13 42  1  0
 15 43  1  0
 16 44  1  0
 20 45  1  0
 21 46  1  6
 22 47  1  0
 22 48  1  0
 23 49  1  0
 23 50  1  0
 26 51  1  0
 29 52  1  0
 30 53  1  0
 31 54  1  0
 32 55  1  0
M  END
$$$$

     RDKit          3D

 55 57  0  0  0  0  0  0  0  0999 V2000
   -7.2710    2.7520    1.5456 N   0  0  0  0  0  0  0  0  0  0  0  0
   -6.5739    1.6981    0.9244 C   0  0  0  0  0  0  0  0  0  0  0  0
   -6.8721    1.3882   -0.3653 N   0  0  0  0  0  0  0  0  0  0  0  0
   -6.2479    0.4001   -1.0186 C   0  0  0  0  0  0  0  0  0  0  0  0
   -6.5165    0.0978   -2.2292 O   0  0  0  0  0  0  0  0  0  0  0  0
   -5.2690   -0.3117   -0.3275 C   0  0  0  0  0  0  0  0  0  0  0  0
   -4.9757    0.0121    0.9812 C   0  0  0  0  0  0  0  0  0  0  0  0
   -5.6432    1.0172    1.5740 N   0  0  0  0  0  0  0  0  0  0  0  0
   -3.9823   -0.7200    1.6703 N   0  0  0  0  0  0  0  0  0  0  0  0
   -3.0072   -1.5189    0.9269 C   0  0  0  0  0  0  0  0  0  0  0  0
   -3.6469   -2.2189   -0.2203 C   0  0  2  0  0  0  0  0  0  0  0  0
   -2.7122   -2.9814   -1.1122 C   0  0  0  0  0  0  0  0  0  0  0  0
   -1.6823   -2.2178   -1.7304 N   0  0  0  0  0  0  0  0  0  0  0  0
   -0.4797   -1.7696   -1.1109 C   0  0  0  0  0  0  0  0  0  0  0  0
    0.2926   -0.7699   -1.6614 C   0  0  0  0  0  0  0  0  0  0  0  0
    1.4811   -0.3444   -1.1095 C   0  0  0  0  0  0  0  0  0  0  0  0
    1.9613   -0.9165    0.0486 C   0  0  0  0  0  0  0  0  0  0  0  0
    3.2144   -0.4719    0.6344 C   0  0  0  0  0  0  0  0  0  0  0  0
    3.8492   -1.3186    1.3184 O   0  0  0  0  0  0  0  0  0  0  0  0
    3.6468    0.8569    0.4123 N   0  0  0  0  0  0  0  0  0  0  0  0
    4.9076    1.2986    0.9911 C   0  0  1  0  0  0  0  0  0  0  0  0
    5.7366    1.8893   -0.1202 C   0  0  0  0  0  0  0  0  0  0  0  0
    5.9774    0.8478   -1.1700 C   0  0  0  0  0  0  0  0  0  0  0  0
    6.7915    1.4116   -2.2641 C   0  0  0  0  0  0  0  0  0  0  0  0
    7.1754    2.5940   -2.2111 O   0  0  0  0  0  0  0  0  0  0  0  0
    7.1154    0.6200   -3.3313 O   0  0  0  0  0  0  0  0  0  0  0  0
    4.6164    2.3230    2.0406 C   0  0  0  0  0  0  0  0  0  0  0  0
    3.4279    2.6495    2.2835 O   0  0  0  0  0  0  0  0  0  0  0  0
    5.5998    2.9487    2.7811 O   0  0  0  0  0  0  0  0  0  0  0  0
    1.2022   -1.9243    0.6223 C   0  0  0  0  0  0  0  0  0  0  0  0
    0.0174   -2.3399    0.0618 C   0  0  0  0  0  0  0  0  0  0  0  0
   -4.5679   -1.3630   -0.9493 N   0  0  0  0  0  0  0  0  0  0  0  0
   -7.4712    2.7168    2.5524 H   0  0  0  0  0  0  0  0  0  0  0  0
   -7.5723    3.5595    0.9566 H   0  0  0  0  0  0  0  0  0  0  0  0
   -5.4106    1.2549    2.5709 H   0  0  0  0  0  0  0  0  0  0  0  0
   -3.9235   -0.7072    2.6919 H   0  0  0  0  0  0  0  0  0  0  0  0
   -2.4961   -2.1768    1.6449 H   0  0  0  0  0  0  0  0  0  0  0  0
   -2.2555   -0.7437    0.5866 H   0  0  0  0  0  0  0  0  0  0  0  0
   -4.3220   -3.0076    0.2462 H   0  0  0  0  0  0  0  0  0  0  0  0
   -2.2905   -3.8836   -0.5908 H   0  0  0  0  0  0  0  0  0  0  0  0
   -3.3533   -3.4463   -1.9210 H   0  0  0  0  0  0  0  0  0  0  0  0
   -1.8099   -1.9494   -2.7544 H   0  0  0  0  0  0  0  0  0  0  0  0
   -0.0892   -0.3222   -2.5739 H   0  0  0  0  0  0  0  0  0  0  0  0
    2.0530    0.4425   -1.5754 H   0  0  0  0  0  0  0  0  0  0  0  0
    3.0539    1.5001   -0.1633 H   0  0  0  0  0  0  0  0  0  0  0  0
    5.4223    0.4282    1.4504 H   0  0  0  0  0  0  0  0  0  0  0  0
    6.7160    2.2581    0.2508 H   0  0  0  0  0  0  0  0  0  0  0  0
    5.1875    2.7346   -0.5948 H   0  0  0  0  0  0  0  0  0  0  0  0
    5.0399    0.3902   -1.5392 H   0  0  0  0  0  0  0  0  0  0  0  0
    6.5914    0.0298   -0.7018 H   0  0  0  0  0  0  0  0  0  0  0  0
    7.6232    0.9297   -4.1583 H   0  0  0  0  0  0  0  0  0  0  0  0
    5.3851    3.4068    3.6802 H   0  0  0  0  0  0  0  0  0  0  0  0
    1.5950   -2.3658    1.5380 H   0  0  0  0  0  0  0  0  0  0  0  0
   -0.5313   -3.1200    0.5422 H   0  0  0  0  0  0  0  0  0  0  0  0
   -4.7070   -1.5463   -1.9786 H   0  0  0  0  0  0  0  0  0  0  0  0
  1  2  1  0
  2  3  2  0
  3  4  1  0
  4  5  2  0
  4  6  1  0
  6  7  2  0
  7  8  1  0
  7  9  1  0
  9 10  1  0
 10 11  1  0
 11 12  1  0
 12 13  1  0
 13 14  1  0
 14 15  2  0
 15 16  1  0
 16 17  2  0
 17 18  1  0
 18 19  2  0
 18 20  1  0
 20 21  1  0
 21 22  1  0
 22 23  1  0
 23 24  1  0
 24 25  2  0
 24 26  1  0
 21 27  1  0
 27 28  2  0
 27 29  1  0
 17 30  1  0
 30 31  2  0
 11 32  1  0
  8  2  1  0
 31 14  1  0
 32  6  1  0
  1 33  1  0
  1 34  1  0
  8 35  1  0
  9 36  1  0
 10 37  1  0
 10 38  1  0
 11 39  1  1
 12 40  1  0
 12 41  1  0
 13 42  1  0
 15 43  1  0
 16 44  1  0
 20 45  1  0
 21 46  1  1
 22 47  1  0
 22 48  1  0
 23 49  1  0
 23 50  1  0
 26 51  1  0
 29 52  1  0
 30 53  1  0
 31 54  1  0
 32 55  1  0
M  END
$$$$

     RDKit          3D

 55 57  0  0  0  0  0  0  0  0999 V2000
   10.2538   -0.3965    0.8056 N   0  0  0  0  0  0  0  0  0  0  0  0
    8.8389   -0.4210    0.6885 C   0  0  0  0  0  0  0  0  0  0  0  0
    8.2002   -1.2835   -0.1345 N   0  0  0  0  0  0  0  0  0  0  0  0
    6.8549   -1.2921   -0.2316 C   0  0  0  0  0  0  0  0  0  0  0  0
    6.2366   -2.0923   -0.9967 O   0  0  0  0  0  0  0  0  0  0  0  0
    6.0641   -0.4264    0.4992 C   0  0  0  0  0  0  0  0  0  0  0  0
    6.7195    0.4509    1.3370 C   0  0  0  0  0  0  0  0  0  0  0  0
    8.0743    0.4256    1.4039 N   0  0  0  0  0  0  0  0  0  0  0  0
    5.9211    1.3456    2.0958 N   0  0  0  0  0  0  0  0  0  0  0  0
    4.4934    1.1523    2.2055 C   0  0  0  0  0  0  0  0  0  0  0  0
    3.9408    0.7695    0.8533 C   0  0  2  0  0  0  0  0  0  0  0  0
    2.4466    0.5616    0.8634 C   0  0  0  0  0  0  0  0  0  0  0  0
    1.9815    0.1991   -0.4431 N   0  0  0  0  0  0  0  0  0  0  0  0
    0.6146   -0.0565   -0.6658 C   0  0  0  0  0  0  0  0  0  0  0  0
   -0.2918    0.0925    0.3498 C   0  0  0  0  0  0  0  0  0  0  0  0
   -1.6475   -0.1671    0.1240 C   0  0  0  0  0  0  0  0  0  0  0  0
   -2.0833   -0.5765   -1.1243 C   0  0  0  0  0  0  0  0  0  0  0  0
   -3.4957   -0.8397   -1.3756 C   0  0  0  0  0  0  0  0  0  0  0  0
   -3.8314   -1.9588   -1.8953 O   0  0  0  0  0  0  0  0  0  0  0  0
   -4.5289    0.0675   -1.0823 N   0  0  0  0  0  0  0  0  0  0  0  0
   -5.9449   -0.1845   -1.3247 C   0  0  1  0  0  0  0  0  0  0  0  0
   -6.7343    0.1428   -0.0869 C   0  0  0  0  0  0  0  0  0  0  0  0
   -8.2073   -0.0810   -0.2026 C   0  0  0  0  0  0  0  0  0  0  0  0
   -8.8831    0.2746    1.0951 C   0  0  0  0  0  0  0  0  0  0  0  0
   -9.0388    1.4777    1.4170 O   0  0  0  0  0  0  0  0  0  0  0  0
   -9.3501   -0.6965    1.9666 O   0  0  0  0  0  0  0  0  0  0  0  0
   -6.3462    0.7202   -2.4408 C   0  0  0  0  0  0  0  0  0  0  0  0
   -5.5034    1.5274   -2.9603 O   0  0  0  0  0  0  0  0  0  0  0  0
   -7.6094    0.7672   -2.9934 O   0  0  0  0  0  0  0  0  0  0  0  0
   -1.1295   -0.7142   -2.1226 C   0  0  0  0  0  0  0  0  0  0  0  0
    0.2059   -0.4612   -1.9124 C   0  0  0  0  0  0  0  0  0  0  0  0
    4.6459   -0.4201    0.4090 N   0  0  0  0  0  0  0  0  0  0  0  0
   10.7238   -1.1977    1.2654 H   0  0  0  0  0  0  0  0  0  0  0  0
   10.8450    0.3800    0.4557 H   0  0  0  0  0  0  0  0  0  0  0  0
    8.5313    1.1010    2.0452 H   0  0  0  0  0  0  0  0  0  0  0  0
    6.4331    2.1485    2.5663 H   0  0  0  0  0  0  0  0  0  0  0  0
    4.0286    2.0965    2.5432 H   0  0  0  0  0  0  0  0  0  0  0  0
    4.2868    0.3044    2.8900 H   0  0  0  0  0  0  0  0  0  0  0  0
    4.2018    1.5840    0.1331 H   0  0  0  0  0  0  0  0  0  0  0  0
    2.1411   -0.1626    1.6437 H   0  0  0  0  0  0  0  0  0  0  0  0
    1.9554    1.5196    1.1334 H   0  0  0  0  0  0  0  0  0  0  0  0
    2.6927    0.1333   -1.2271 H   0  0  0  0  0  0  0  0  0  0  0  0
   -0.0149    0.4086    1.3530 H   0  0  0  0  0  0  0  0  0  0  0  0
   -2.3443   -0.0472    0.9224 H   0  0  0  0  0  0  0  0  0  0  0  0
   -4.2865    0.9859   -0.6650 H   0  0  0  0  0  0  0  0  0  0  0  0
   -6.0852   -1.2294   -1.6595 H   0  0  0  0  0  0  0  0  0  0  0  0
   -6.3620   -0.5043    0.7503 H   0  0  0  0  0  0  0  0  0  0  0  0
   -6.5135    1.2002    0.2422 H   0  0  0  0  0  0  0  0  0  0  0  0
   -8.4144   -1.1385   -0.4625 H   0  0  0  0  0  0  0  0  0  0  0  0
   -8.6306    0.6237   -0.9570 H   0  0  0  0  0  0  0  0  0  0  0  0
   -9.9378   -0.4239    2.7515 H   0  0  0  0  0  0  0  0  0  0  0  0
   -7.7252    0.7954   -4.0168 H   0  0  0  0  0  0  0  0  0  0  0  0
   -1.4697   -1.0368   -3.1148 H   0  0  0  0  0  0  0  0  0  0  0  0
    0.9146   -0.5865   -2.7417 H   0  0  0  0  0  0  0  0  0  0  0  0
    4.1634   -1.2697    0.0285 H   0  0  0  0  0  0  0  0  0  0  0  0
  1  2  1  0
  2  3  2  0
  3  4  1  0
  4  5  2  0
  4  6  1  0
  6  7  2  0
  7  8  1  0
  7  9  1  0
  9 10  1  0
 10 11  1  0
 11 12  1  0
 12 13  1  0
 13 14  1  0
 14 15  2  0
 15 16  1  0
 16 17  2  0
 17 18  1  0
 18 19  2  0
 18 20  1  0
 20 21  1  0
 21 22  1  0
 22 23  1  0
 23 24  1  0
 24 25  2  0
 24 26  1  0
 21 27  1  0
 27 28  2  0
 27 29  1  0
 17 30  1  0
 30 31  2  0
 11 32  1  0
  8  2  1  0
 31 14  1  0
 32  6  1  0
  1 33  1  0
  1 34  1  0
  8 35  1  0
  9 36  1  0
 10 37  1  0
 10 38  1  0
 11 39  1  6
 12 40  1  0
 12 41  1  0
 13 42  1  0
 15 43  1  0
 16 44  1  0
 20 45  1  0
 21 46  1  6
 22 47  1  0
 22 48  1  0
 23 49  1  0
 23 50  1  0
 26 51  1  0
 29 52  1  0
 30 53  1  0
 31 54  1  0
 32 55  1  0
M  END
$$$$

     RDKit          3D

 55 57  0  0  0  0  0  0  0  0999 V2000
    9.1709    0.3098   -0.6494 N   0  0  0  0  0  0  0  0  0  0  0  0
    7.8339    0.2422   -0.1777 C   0  0  0  0  0  0  0  0  0  0  0  0
    7.3168    1.1595    0.6688 N   0  0  0  0  0  0  0  0  0  0  0  0
    6.0529    1.1120    1.1250 C   0  0  0  0  0  0  0  0  0  0  0  0
    5.5662    1.9648    1.9144 O   0  0  0  0  0  0  0  0  0  0  0  0
    5.2065    0.0773    0.7239 C   0  0  0  0  0  0  0  0  0  0  0  0
    5.7484   -0.8485   -0.1384 C   0  0  0  0  0  0  0  0  0  0  0  0
    7.0265   -0.7582   -0.5699 N   0  0  0  0  0  0  0  0  0  0  0  0
    4.8950   -1.9194   -0.5626 N   0  0  0  0  0  0  0  0  0  0  0  0
    3.7940   -2.2390    0.3307 C   0  0  0  0  0  0  0  0  0  0  0  0
    2.9712   -0.9520    0.4936 C   0  0  2  0  0  0  0  0  0  0  0  0
    2.7728   -0.4146   -0.9054 C   0  0  0  0  0  0  0  0  0  0  0  0
    2.0173    0.8000   -0.9696 N   0  0  0  0  0  0  0  0  0  0  0  0
    0.6401    0.8493   -0.6266 C   0  0  0  0  0  0  0  0  0  0  0  0
   -0.1425   -0.2659   -0.4029 C   0  0  0  0  0  0  0  0  0  0  0  0
   -1.4726   -0.1893   -0.0576 C   0  0  0  0  0  0  0  0  0  0  0  0
   -2.1065    1.0122    0.0859 C   0  0  0  0  0  0  0  0  0  0  0  0
   -3.4947    1.1276    0.4498 C   0  0  0  0  0  0  0  0  0  0  0  0
   -3.9924    2.3005    0.4662 O   0  0  0  0  0  0  0  0  0  0  0  0
   -4.2834    0.0111    0.7760 N   0  0  0  0  0  0  0  0  0  0  0  0
   -5.6969    0.2041    1.1316 C   0  0  1  0  0  0  0  0  0  0  0  0
   -6.4862   -0.8762    0.4582 C   0  0  0  0  0  0  0  0  0  0  0  0
   -6.3259   -0.7863   -1.0318 C   0  0  0  0  0  0  0  0  0  0  0  0
   -6.8458    0.5142   -1.5004 C   0  0  0  0  0  0  0  0  0  0  0  0
   -6.1643    1.5542   -1.5313 O   0  0  0  0  0  0  0  0  0  0  0  0
   -8.1661    0.6035   -1.9352 O   0  0  0  0  0  0  0  0  0  0  0  0
   -5.7540    0.0380    2.6359 C   0  0  0  0  0  0  0  0  0  0  0  0
   -4.7524   -0.2100    3.3257 O   0  0  0  0  0  0  0  0  0  0  0  0
   -6.9901    0.1748    3.2354 O   0  0  0  0  0  0  0  0  0  0  0  0
   -1.3147    2.1449   -0.1413 C   0  0  0  0  0  0  0  0  0  0  0  0
    0.0052    2.0871   -0.4840 C   0  0  0  0  0  0  0  0  0  0  0  0
    3.8679   -0.0097    1.1825 N   0  0  0  0  0  0  0  0  0  0  0  0
    9.7686    1.1617   -0.6075 H   0  0  0  0  0  0  0  0  0  0  0  0
    9.5911   -0.5450   -1.0672 H   0  0  0  0  0  0  0  0  0  0  0  0
    7.3869   -1.5044   -1.2353 H   0  0  0  0  0  0  0  0  0  0  0  0
    5.0886   -2.4036   -1.4527 H   0  0  0  0  0  0  0  0  0  0  0  0
    4.1644   -2.5788    1.3073 H   0  0  0  0  0  0  0  0  0  0  0  0
    3.1150   -2.9932   -0.1204 H   0  0  0  0  0  0  0  0  0  0  0  0
    2.0624   -1.1242    1.0602 H   0  0  0  0  0  0  0  0  0  0  0  0
    3.7386   -0.2830   -1.4348 H   0  0  0  0  0  0  0  0  0  0  0  0
    2.2413   -1.2448   -1.4598 H   0  0  0  0  0  0  0  0  0  0  0  0
    2.4816    1.6810   -1.2767 H   0  0  0  0  0  0  0  0  0  0  0  0
    0.3485   -1.2478   -0.5251 H   0  0  0  0  0  0  0  0  0  0  0  0
   -2.0170   -1.1011    0.1000 H   0  0  0  0  0  0  0  0  0  0  0  0
   -3.8879   -0.9614    0.7735 H   0  0  0  0  0  0  0  0  0  0  0  0
   -5.9893    1.2230    0.8630 H   0  0  0  0  0  0  0  0  0  0  0  0
   -7.5846   -0.7717    0.7025 H   0  0  0  0  0  0  0  0  0  0  0  0
   -6.1563   -1.8778    0.8477 H   0  0  0  0  0  0  0  0  0  0  0  0
   -6.8148   -1.6369   -1.5541 H   0  0  0  0  0  0  0  0  0  0  0  0
   -5.2456   -0.8440   -1.3337 H   0  0  0  0  0  0  0  0  0  0  0  0
   -8.4663    1.2944   -2.6170 H   0  0  0  0  0  0  0  0  0  0  0  0
   -7.1077    0.2780    4.2364 H   0  0  0  0  0  0  0  0  0  0  0  0
   -1.8088    3.1107   -0.0306 H   0  0  0  0  0  0  0  0  0  0  0  0
    0.6183    2.9716   -0.6602 H   0  0  0  0  0  0  0  0  0  0  0  0
    3.5755    0.5792    1.9681 H   0  0  0  0  0  0  0  0  0  0  0  0
  1  2  1  0
  2  3  2  0
  3  4  1  0
  4  5  2  0
  4  6  1  0
  6  7  2  0
  7  8  1  0
  7  9  1  0
  9 10  1  0
 10 11  1  0
 11 12  1  0
 12 13  1  0
 13 14  1  0
 14 15  2  0
 15 16  1  0
 16 17  2  0
 17 18  1  0
 18 19  2  0
 18 20  1  0
 20 21  1  0
 21 22  1  0
 22 23  1  0
 23 24  1  0
 24 25  2  0
 24 26  1  0
 21 27  1  0
 27 28  2  0
 27 29  1  0
 17 30  1  0
 30 31  2  0
 11 32  1  0
  8  2  1  0
 31 14  1  0
 32  6  1  0
  1 33  1  0
  1 34  1  0
  8 35  1  0
  9 36  1  0
 10 37  1  0
 10 38  1  0
 11 39  1  1
 12 40  1  0
 12 41  1  0
 13 42  1  0
 15 43  1  0
 16 44  1  0
 20 45  1  0
 21 46  1  1
 22 47  1  0
 22 48  1  0
 23 49  1  0
 23 50  1  0
 26 51  1  0
 29 52  1  0
 30 53  1  0
 31 54  1  0
 32 55  1  0
M  END
$$$$

     RDKit          3D

 55 57  0  0  0  0  0  0  0  0999 V2000
   -7.7217   -2.4298    3.5002 N   0  0  0  0  0  0  0  0  0  0  0  0
   -7.0822   -1.7739    2.4284 C   0  0  0  0  0  0  0  0  0  0  0  0
   -7.8293   -1.0477    1.5647 N   0  0  0  0  0  0  0  0  0  0  0  0
   -7.2476   -0.4102    0.5324 C   0  0  0  0  0  0  0  0  0  0  0  0
   -7.8894    0.2807   -0.3042 O   0  0  0  0  0  0  0  0  0  0  0  0
   -5.8776   -0.5222    0.3872 C   0  0  0  0  0  0  0  0  0  0  0  0
   -5.0966   -1.2648    1.2667 C   0  0  0  0  0  0  0  0  0  0  0  0
   -5.7393   -1.8781    2.2784 N   0  0  0  0  0  0  0  0  0  0  0  0
   -3.6990   -1.3531    1.0862 N   0  0  0  0  0  0  0  0  0  0  0  0
   -3.0167   -0.5142    0.0836 C   0  0  0  0  0  0  0  0  0  0  0  0
   -3.9142   -0.4303   -1.1066 C   0  0  2  0  0  0  0  0  0  0  0  0
   -3.4095    0.3671   -2.2632 C   0  0  0  0  0  0  0  0  0  0  0  0
   -2.1820   -0.1141   -2.7974 N   0  0  0  0  0  0  0  0  0  0  0  0
   -0.9369    0.1986   -2.2157 C   0  0  0  0  0  0  0  0  0  0  0  0
   -0.7726    1.2240   -1.3290 C   0  0  0  0  0  0  0  0  0  0  0  0
    0.4742    1.5183   -0.7576 C   0  0  0  0  0  0  0  0  0  0  0  0
    1.5767    0.7614   -1.0891 C   0  0  0  0  0  0  0  0  0  0  0  0
    2.8552    1.0912   -0.4760 C   0  0  0  0  0  0  0  0  0  0  0  0
    2.9451    2.0260    0.3904 O   0  0  0  0  0  0  0  0  0  0  0  0
    4.0586    0.4153   -0.7897 N   0  0  0  0  0  0  0  0  0  0  0  0
    5.3474    0.7809   -0.1392 C   0  0  1  0  0  0  0  0  0  0  0  0
    5.8816   -0.3743    0.6181 C   0  0  0  0  0  0  0  0  0  0  0  0
    7.1794   -0.0585    1.2927 C   0  0  0  0  0  0  0  0  0  0  0  0
    7.1318    1.0259    2.2838 C   0  0  0  0  0  0  0  0  0  0  0  0
    6.0611    1.5829    2.5709 O   0  0  0  0  0  0  0  0  0  0  0  0
    8.3077    1.4208    2.8977 O   0  0  0  0  0  0  0  0  0  0  0  0
    6.2436    1.3572   -1.1564 C   0  0  0  0  0  0  0  0  0  0  0  0
    5.8736    1.4331   -2.3834 O   0  0  0  0  0  0  0  0  0  0  0  0
    7.4883    1.8377   -0.8791 O   0  0  0  0  0  0  0  0  0  0  0  0
    1.3855   -0.2626   -1.9820 C   0  0  0  0  0  0  0  0  0  0  0  0
    0.1743   -0.5613   -2.5475 C   0  0  0  0  0  0  0  0  0  0  0  0
   -5.2089    0.1204   -0.6694 N   0  0  0  0  0  0  0  0  0  0  0  0
   -8.2156   -1.8841    4.2212 H   0  0  0  0  0  0  0  0  0  0  0  0
   -7.6933   -3.4582    3.5599 H   0  0  0  0  0  0  0  0  0  0  0  0
   -5.1759   -2.4438    2.9544 H   0  0  0  0  0  0  0  0  0  0  0  0
   -3.1330   -2.0134    1.6606 H   0  0  0  0  0  0  0  0  0  0  0  0
   -2.8418    0.4911    0.5062 H   0  0  0  0  0  0  0  0  0  0  0  0
   -2.0336   -0.9815   -0.1595 H   0  0  0  0  0  0  0  0  0  0  0  0
   -4.1596   -1.4910   -1.4104 H   0  0  0  0  0  0  0  0  0  0  0  0
   -4.1994    0.3088   -3.0643 H   0  0  0  0  0  0  0  0  0  0  0  0
   -3.3571    1.4545   -1.9831 H   0  0  0  0  0  0  0  0  0  0  0  0
   -2.2061   -0.7393   -3.6762 H   0  0  0  0  0  0  0  0  0  0  0  0
   -1.6337    1.8371   -1.0538 H   0  0  0  0  0  0  0  0  0  0  0  0
    0.4820    2.3509   -0.0707 H   0  0  0  0  0  0  0  0  0  0  0  0
    4.0722   -0.3466   -1.4766 H   0  0  0  0  0  0  0  0  0  0  0  0
    5.0830    1.5983    0.5527 H   0  0  0  0  0  0  0  0  0  0  0  0
    6.0232   -1.2644   -0.0452 H   0  0  0  0  0  0  0  0  0  0  0  0
    5.0961   -0.6795    1.3717 H   0  0  0  0  0  0  0  0  0  0  0  0
    7.5705   -1.0054    1.8179 H   0  0  0  0  0  0  0  0  0  0  0  0
    7.9958    0.1848    0.5641 H   0  0  0  0  0  0  0  0  0  0  0  0
    8.3891    2.2738    3.4420 H   0  0  0  0  0  0  0  0  0  0  0  0
    7.8890    2.6394   -1.3547 H   0  0  0  0  0  0  0  0  0  0  0  0
    2.2358   -0.8769   -2.2630 H   0  0  0  0  0  0  0  0  0  0  0  0
    0.0731   -1.3794   -3.2466 H   0  0  0  0  0  0  0  0  0  0  0  0
   -5.6211    0.9783   -1.1425 H   0  0  0  0  0  0  0  0  0  0  0  0
  1  2  1  0
  2  3  2  0
  3  4  1  0
  4  5  2  0
  4  6  1  0
  6  7  2  0
  7  8  1  0
  7  9  1  0
  9 10  1  0
 10 11  1  0
 11 12  1  0
 12 13  1  0
 13 14  1  0
 14 15  2  0
 15 16  1  0
 16 17  2  0
 17 18  1  0
 18 19  2  0
 18 20  1  0
 20 21  1  0
 21 22  1  0
 22 23  1  0
 23 24  1  0
 24 25  2  0
 24 26  1  0
 21 27  1  0
 27 28  2  0
 27 29  1  0
 17 30  1  0
 30 31  2  0
 11 32  1  0
  8  2  1  0
 31 14  1  0
 32  6  1  0
  1 33  1  0
  1 34  1  0
  8 35  1  0
  9 36  1  0
 10 37  1  0
 10 38  1  0
 11 39  1  6
 12 40  1  0
 12 41  1  0
 13 42  1  0
 15 43  1  0
 16 44  1  0
 20 45  1  0
 21 46  1  1
 22 47  1  0
 22 48  1  0
 23 49  1  0
 23 50  1  0
 26 51  1  0
 29 52  1  0
 30 53  1  0
 31 54  1  0
 32 55  1  0
M  END
$$$$

     RDKit          3D

 55 57  0  0  0  0  0  0  0  0999 V2000
  -10.2898   -0.9462    0.5153 N   0  0  0  0  0  0  0  0  0  0  0  0
   -8.8960   -1.1023    0.4223 C   0  0  0  0  0  0  0  0  0  0  0  0
   -8.2707   -2.2930    0.5858 N   0  0  0  0  0  0  0  0  0  0  0  0
   -6.9360   -2.4326    0.4949 C   0  0  0  0  0  0  0  0  0  0  0  0
   -6.3429   -3.5389    0.6458 O   0  0  0  0  0  0  0  0  0  0  0  0
   -6.1819   -1.3072    0.2231 C   0  0  0  0  0  0  0  0  0  0  0  0
   -6.7920   -0.0770    0.0511 C   0  0  0  0  0  0  0  0  0  0  0  0
   -8.1259   -0.0151    0.1561 N   0  0  0  0  0  0  0  0  0  0  0  0
   -6.0210    1.0836   -0.2288 N   0  0  0  0  0  0  0  0  0  0  0  0
   -4.6501    0.8941   -0.6587 C   0  0  0  0  0  0  0  0  0  0  0  0
   -4.0259   -0.1174    0.2624 C   0  0  2  0  0  0  0  0  0  0  0  0
   -2.5635   -0.3056    0.0292 C   0  0  0  0  0  0  0  0  0  0  0  0
   -1.8548    0.9250    0.2244 N   0  0  0  0  0  0  0  0  0  0  0  0
   -0.4471    1.0525    0.0729 C   0  0  0  0  0  0  0  0  0  0  0  0
    0.3445   -0.0209   -0.2767 C   0  0  0  0  0  0  0  0  0  0  0  0
    1.7318    0.1235   -0.4217 C   0  0  0  0  0  0  0  0  0  0  0  0
    2.3535    1.3156   -0.2262 C   0  0  0  0  0  0  0  0  0  0  0  0
    3.7929    1.4516   -0.3787 C   0  0  0  0  0  0  0  0  0  0  0  0
    4.3647    2.5822   -0.2305 O   0  0  0  0  0  0  0  0  0  0  0  0
    4.5753    0.3241   -0.6944 N   0  0  0  0  0  0  0  0  0  0  0  0
    6.0293    0.4614   -0.8486 C   0  0  1  0  0  0  0  0  0  0  0  0
    6.7451   -0.3614    0.1711 C   0  0  0  0  0  0  0  0  0  0  0  0
    8.2343   -0.2635    0.0721 C   0  0  0  0  0  0  0  0  0  0  0  0
    8.8649   -1.1087    1.1444 C   0  0  0  0  0  0  0  0  0  0  0  0
   10.1086   -1.1641    1.2349 O   0  0  0  0  0  0  0  0  0  0  0  0
    8.0725   -1.8150    2.0184 O   0  0  0  0  0  0  0  0  0  0  0  0
    6.3790    0.1444   -2.2466 C   0  0  0  0  0  0  0  0  0  0  0  0
    5.4496   -0.2045   -3.0477 O   0  0  0  0  0  0  0  0  0  0  0  0
    7.6493    0.1945   -2.7744 O   0  0  0  0  0  0  0  0  0  0  0  0
    1.5585    2.3970    0.1257 C   0  0  0  0  0  0  0  0  0  0  0  0
    0.1974    2.2633    0.2697 C   0  0  0  0  0  0  0  0  0  0  0  0
   -4.7609   -1.3574    0.1086 N   0  0  0  0  0  0  0  0  0  0  0  0
  -10.9118   -0.7976   -0.3054 H   0  0  0  0  0  0  0  0  0  0  0  0
  -10.7360   -0.9797    1.4549 H   0  0  0  0  0  0  0  0  0  0  0  0
   -8.5570    0.9373    0.0193 H   0  0  0  0  0  0  0  0  0  0  0  0
   -6.4893    2.0060   -0.1078 H   0  0  0  0  0  0  0  0  0  0  0  0
   -4.1263    1.8701   -0.6437 H   0  0  0  0  0  0  0  0  0  0  0  0
   -4.6943    0.4567   -1.6839 H   0  0  0  0  0  0  0  0  0  0  0  0
   -4.1557    0.1976    1.3273 H   0  0  0  0  0  0  0  0  0  0  0  0
   -2.3397   -0.7828   -0.9519 H   0  0  0  0  0  0  0  0  0  0  0  0
   -2.1917   -1.0237    0.7965 H   0  0  0  0  0  0  0  0  0  0  0  0
   -2.3855    1.7842    0.4925 H   0  0  0  0  0  0  0  0  0  0  0  0
   -0.1237   -0.9977   -0.4422 H   0  0  0  0  0  0  0  0  0  0  0  0
    2.2523   -0.7677   -0.6950 H   0  0  0  0  0  0  0  0  0  0  0  0
    4.2133   -0.6339   -0.8346 H   0  0  0  0  0  0  0  0  0  0  0  0
    6.3094    1.5220   -0.6791 H   0  0  0  0  0  0  0  0  0  0  0  0
    6.4530   -0.0082    1.1828 H   0  0  0  0  0  0  0  0  0  0  0  0
    6.4518   -1.4367    0.1338 H   0  0  0  0  0  0  0  0  0  0  0  0
    8.5668   -0.7182   -0.8927 H   0  0  0  0  0  0  0  0  0  0  0  0
    8.6054    0.7641    0.1083 H   0  0  0  0  0  0  0  0  0  0  0  0
    8.3951   -1.9725    2.9824 H   0  0  0  0  0  0  0  0  0  0  0  0
    7.9016   -0.4092   -3.5377 H   0  0  0  0  0  0  0  0  0  0  0  0
    2.0113    3.3601    0.2899 H   0  0  0  0  0  0  0  0  0  0  0  0
   -0.4412    3.1110    0.5476 H   0  0  0  0  0  0  0  0  0  0  0  0
   -4.3005   -2.2631   -0.0782 H   0  0  0  0  0  0  0  0  0  0  0  0
  1  2  1  0
  2  3  2  0
  3  4  1  0
  4  5  2  0
  4  6  1  0
  6  7  2  0
  7  8  1  0
  7  9  1  0
  9 10  1  0
 10 11  1  0
 11 12  1  0
 12 13  1  0
 13 14  1  0
 14 15  2  0
 15 16  1  0
 16 17  2  0
 17 18  1  0
 18 19  2  0
 18 20  1  0
 20 21  1  0
 21 22  1  0
 22 23  1  0
 23 24  1  0
 24 25  2  0
 24 26  1  0
 21 27  1  0
 27 28  2  0
 27 29  1  0
 17 30  1  0
 30 31  2  0
 11 32  1  0
  8  2  1  0
 31 14  1  0
 32  6  1  0
  1 33  1  0
  1 34  1  0
  8 35  1  0
  9 36  1  0
 10 37  1  0
 10 38  1  0
 11 39  1  1
 12 40  1  0
 12 41  1  0
 13 42  1  0
 15 43  1  0
 16 44  1  0
 20 45  1  0
 21 46  1  1
 22 47  1  0
 22 48  1  0
 23 49  1  0
 23 50  1  0
 26 51  1  0
 29 52  1  0
 30 53  1  0
 31 54  1  0
 32 55  1  0
M  END
$$$$

     RDKit          3D

 55 57  0  0  0  0  0  0  0  0999 V2000
  -10.1582   -0.3883   -1.2247 N   0  0  0  0  0  0  0  0  0  0  0  0
   -8.7374   -0.4479   -1.1909 C   0  0  0  0  0  0  0  0  0  0  0  0
   -8.1335   -1.1031   -2.2011 N   0  0  0  0  0  0  0  0  0  0  0  0
   -6.7881   -1.1967   -2.2243 C   0  0  0  0  0  0  0  0  0  0  0  0
   -6.1810   -1.8055   -3.1577 O   0  0  0  0  0  0  0  0  0  0  0  0
   -6.0616   -0.6190   -1.2125 C   0  0  0  0  0  0  0  0  0  0  0  0
   -6.6862    0.0537   -0.1758 C   0  0  0  0  0  0  0  0  0  0  0  0
   -8.0385    0.1185   -0.2003 N   0  0  0  0  0  0  0  0  0  0  0  0
   -5.9364    0.6450    0.8598 N   0  0  0  0  0  0  0  0  0  0  0  0
   -4.5036    0.6693    0.7852 C   0  0  0  0  0  0  0  0  0  0  0  0
   -3.8947   -0.4320   -0.0098 C   0  0  2  0  0  0  0  0  0  0  0  0
   -2.4742   -0.0710   -0.3607 C   0  0  0  0  0  0  0  0  0  0  0  0
   -1.7235    0.1209    0.8560 N   0  0  0  0  0  0  0  0  0  0  0  0
   -0.3224    0.4733    0.8031 C   0  0  0  0  0  0  0  0  0  0  0  0
    0.3643    0.7586    1.9639 C   0  0  0  0  0  0  0  0  0  0  0  0
    1.7000    1.0949    1.9527 C   0  0  0  0  0  0  0  0  0  0  0  0
    2.4242    1.1629    0.7605 C   0  0  0  0  0  0  0  0  0  0  0  0
    3.8278    1.5367    0.7524 C   0  0  0  0  0  0  0  0  0  0  0  0
    4.2267    2.6543    1.1639 O   0  0  0  0  0  0  0  0  0  0  0  0
    4.7829    0.6137    0.2672 N   0  0  0  0  0  0  0  0  0  0  0  0
    6.2149    0.9553    0.2379 C   0  0  1  0  0  0  0  0  0  0  0  0
    6.9145    0.1167    1.2585 C   0  0  0  0  0  0  0  0  0  0  0  0
    6.8168   -1.3581    1.0798 C   0  0  0  0  0  0  0  0  0  0  0  0
    7.3912   -1.8356   -0.1823 C   0  0  0  0  0  0  0  0  0  0  0  0
    6.6488   -2.1538   -1.1261 O   0  0  0  0  0  0  0  0  0  0  0  0
    8.7631   -1.9341   -0.3275 O   0  0  0  0  0  0  0  0  0  0  0  0
    6.7795    0.8976   -1.1211 C   0  0  0  0  0  0  0  0  0  0  0  0
    6.1213    0.6344   -2.1547 O   0  0  0  0  0  0  0  0  0  0  0  0
    8.1314    1.1497   -1.2888 O   0  0  0  0  0  0  0  0  0  0  0  0
    1.7241    0.8749   -0.3898 C   0  0  0  0  0  0  0  0  0  0  0  0
    0.3737    0.5347   -0.3804 C   0  0  0  0  0  0  0  0  0  0  0  0
   -4.6569   -0.7120   -1.2223 N   0  0  0  0  0  0  0  0  0  0  0  0
  -10.7082   -1.2482   -1.0241 H   0  0  0  0  0  0  0  0  0  0  0  0
  -10.6563    0.4825   -1.4440 H   0  0  0  0  0  0  0  0  0  0  0  0
   -8.5551    0.6225    0.5713 H   0  0  0  0  0  0  0  0  0  0  0  0
   -6.4164    1.0599    1.6694 H   0  0  0  0  0  0  0  0  0  0  0  0
   -4.1776    1.6687    0.3753 H   0  0  0  0  0  0  0  0  0  0  0  0
   -4.1075    0.6060    1.8334 H   0  0  0  0  0  0  0  0  0  0  0  0
   -3.8345   -1.3451    0.6365 H   0  0  0  0  0  0  0  0  0  0  0  0
   -2.0062   -0.8289   -1.0266 H   0  0  0  0  0  0  0  0  0  0  0  0
   -2.4624    0.9072   -0.9212 H   0  0  0  0  0  0  0  0  0  0  0  0
   -2.1969   -0.0002    1.7725 H   0  0  0  0  0  0  0  0  0  0  0  0
   -0.1874    0.7088    2.8985 H   0  0  0  0  0  0  0  0  0  0  0  0
    2.2554    1.3231    2.8537 H   0  0  0  0  0  0  0  0  0  0  0  0
    4.5159   -0.3297   -0.0825 H   0  0  0  0  0  0  0  0  0  0  0  0
    6.3082    2.0373    0.5683 H   0  0  0  0  0  0  0  0  0  0  0  0
    6.4226    0.3900    2.2475 H   0  0  0  0  0  0  0  0  0  0  0  0
    7.9877    0.4528    1.3785 H   0  0  0  0  0  0  0  0  0  0  0  0
    5.7538   -1.7192    1.1508 H   0  0  0  0  0  0  0  0  0  0  0  0
    7.3253   -1.8926    1.9381 H   0  0  0  0  0  0  0  0  0  0  0  0
    9.1583   -2.3155   -1.1714 H   0  0  0  0  0  0  0  0  0  0  0  0
    8.6686    0.9260   -2.1062 H   0  0  0  0  0  0  0  0  0  0  0  0
    2.2715    0.9229   -1.3300 H   0  0  0  0  0  0  0  0  0  0  0  0
   -0.1370    0.3174   -1.3091 H   0  0  0  0  0  0  0  0  0  0  0  0
   -4.1308   -0.9773   -2.0688 H   0  0  0  0  0  0  0  0  0  0  0  0
  1  2  1  0
  2  3  2  0
  3  4  1  0
  4  5  2  0
  4  6  1  0
  6  7  2  0
  7  8  1  0
  7  9  1  0
  9 10  1  0
 10 11  1  0
 11 12  1  0
 12 13  1  0
 13 14  1  0
 14 15  2  0
 15 16  1  0
 16 17  2  0
 17 18  1  0
 18 19  2  0
 18 20  1  0
 20 21  1  0
 21 22  1  0
 22 23  1  0
 23 24  1  0
 24 25  2  0
 24 26  1  0
 21 27  1  0
 27 28  2  0
 27 29  1  0
 17 30  1  0
 30 31  2  0
 11 32  1  0
  8  2  1  0
 31 14  1  0
 32  6  1  0
  1 33  1  0
  1 34  1  0
  8 35  1  0
  9 36  1  0
 10 37  1  0
 10 38  1  0
 11 39  1  1
 12 40  1  0
 12 41  1  0
 13 42  1  0
 15 43  1  0
 16 44  1  0
 20 45  1  0
 21 46  1  1
 22 47  1  0
 22 48  1  0
 23 49  1  0
 23 50  1  0
 26 51  1  0
 29 52  1  0
 30 53  1  0
 31 54  1  0
 32 55  1  0
M  END
$$$$

     RDKit          3D

 55 57  0  0  0  0  0  0  0  0999 V2000
   -8.4614   -1.6047   -2.0288 N   0  0  0  0  0  0  0  0  0  0  0  0
   -7.5888   -1.0653   -1.0467 C   0  0  0  0  0  0  0  0  0  0  0  0
   -7.5501   -1.5060    0.2223 N   0  0  0  0  0  0  0  0  0  0  0  0
   -6.7390   -1.0187    1.1700 C   0  0  0  0  0  0  0  0  0  0  0  0
   -6.7118   -1.4407    2.3582 O   0  0  0  0  0  0  0  0  0  0  0  0
   -5.8788    0.0138    0.8134 C   0  0  0  0  0  0  0  0  0  0  0  0
   -5.9090    0.4776   -0.4929 C   0  0  0  0  0  0  0  0  0  0  0  0
   -6.7505   -0.0615   -1.3872 N   0  0  0  0  0  0  0  0  0  0  0  0
   -5.0199    1.5449   -0.8633 N   0  0  0  0  0  0  0  0  0  0  0  0
   -4.6185    2.4464    0.1976 C   0  0  0  0  0  0  0  0  0  0  0  0
   -4.1882    1.7203    1.4424 C   0  0  2  0  0  0  0  0  0  0  0  0
   -2.7066    1.4339    1.3741 C   0  0  0  0  0  0  0  0  0  0  0  0
   -2.3334    0.6200    0.2522 N   0  0  0  0  0  0  0  0  0  0  0  0
   -0.9677    0.2845    0.0734 C   0  0  0  0  0  0  0  0  0  0  0  0
   -0.5244   -0.4873   -0.9797 C   0  0  0  0  0  0  0  0  0  0  0  0
    0.7927   -0.8195   -1.1652 C   0  0  0  0  0  0  0  0  0  0  0  0
    1.7645   -0.3712   -0.2612 C   0  0  0  0  0  0  0  0  0  0  0  0
    3.1731   -0.7365   -0.4786 C   0  0  0  0  0  0  0  0  0  0  0  0
    3.5192   -1.3854   -1.4977 O   0  0  0  0  0  0  0  0  0  0  0  0
    4.1895   -0.3819    0.4330 N   0  0  0  0  0  0  0  0  0  0  0  0
    5.6023   -0.7450    0.2191 C   0  0  1  0  0  0  0  0  0  0  0  0
    6.4335    0.4891    0.1346 C   0  0  0  0  0  0  0  0  0  0  0  0
    7.8820    0.2470   -0.0816 C   0  0  0  0  0  0  0  0  0  0  0  0
    8.2322   -0.4719   -1.3137 C   0  0  0  0  0  0  0  0  0  0  0  0
    7.3926   -0.8456   -2.1560 O   0  0  0  0  0  0  0  0  0  0  0  0
    9.5882   -0.7607   -1.5681 O   0  0  0  0  0  0  0  0  0  0  0  0
    6.0312   -1.7225    1.2333 C   0  0  0  0  0  0  0  0  0  0  0  0
    5.1823   -2.0777    2.1078 O   0  0  0  0  0  0  0  0  0  0  0  0
    7.2955   -2.2750    1.2904 O   0  0  0  0  0  0  0  0  0  0  0  0
    1.3343    0.3978    0.7912 C   0  0  0  0  0  0  0  0  0  0  0  0
    0.0033    0.7197    0.9576 C   0  0  0  0  0  0  0  0  0  0  0  0
   -4.9884    0.5815    1.7597 N   0  0  0  0  0  0  0  0  0  0  0  0
   -9.4394   -1.3014   -2.0691 H   0  0  0  0  0  0  0  0  0  0  0  0
   -8.1069   -2.3122   -2.7118 H   0  0  0  0  0  0  0  0  0  0  0  0
   -6.7371    0.3264   -2.3756 H   0  0  0  0  0  0  0  0  0  0  0  0
   -4.7275    1.6027   -1.8440 H   0  0  0  0  0  0  0  0  0  0  0  0
   -5.5077    3.0767    0.4815 H   0  0  0  0  0  0  0  0  0  0  0  0
   -3.7820    3.1054   -0.1119 H   0  0  0  0  0  0  0  0  0  0  0  0
   -4.3042    2.4698    2.2823 H   0  0  0  0  0  0  0  0  0  0  0  0
   -2.2101    2.4393    1.2413 H   0  0  0  0  0  0  0  0  0  0  0  0
   -2.3080    1.0458    2.3287 H   0  0  0  0  0  0  0  0  0  0  0  0
   -3.0256    0.2671   -0.4337 H   0  0  0  0  0  0  0  0  0  0  0  0
   -1.2783   -0.8399   -1.6882 H   0  0  0  0  0  0  0  0  0  0  0  0
    1.1505   -1.4268   -1.9918 H   0  0  0  0  0  0  0  0  0  0  0  0
    3.9839    0.1537    1.2993 H   0  0  0  0  0  0  0  0  0  0  0  0
    5.6121   -1.2830   -0.7540 H   0  0  0  0  0  0  0  0  0  0  0  0
    5.9769    1.1247   -0.6708 H   0  0  0  0  0  0  0  0  0  0  0  0
    6.2996    1.0521    1.0814 H   0  0  0  0  0  0  0  0  0  0  0  0
    8.3149   -0.2655    0.7993 H   0  0  0  0  0  0  0  0  0  0  0  0
    8.3700    1.2731   -0.1008 H   0  0  0  0  0  0  0  0  0  0  0  0
    9.9229   -0.8427   -2.5281 H   0  0  0  0  0  0  0  0  0  0  0  0
    7.4603   -3.0778    1.8521 H   0  0  0  0  0  0  0  0  0  0  0  0
    2.0661    0.7528    1.4978 H   0  0  0  0  0  0  0  0  0  0  0  0
   -0.2604    1.3360    1.8205 H   0  0  0  0  0  0  0  0  0  0  0  0
   -4.9499    0.1242    2.6956 H   0  0  0  0  0  0  0  0  0  0  0  0
  1  2  1  0
  2  3  2  0
  3  4  1  0
  4  5  2  0
  4  6  1  0
  6  7  2  0
  7  8  1  0
  7  9  1  0
  9 10  1  0
 10 11  1  0
 11 12  1  0
 12 13  1  0
 13 14  1  0
 14 15  2  0
 15 16  1  0
 16 17  2  0
 17 18  1  0
 18 19  2  0
 18 20  1  0
 20 21  1  0
 21 22  1  0
 22 23  1  0
 23 24  1  0
 24 25  2  0
 24 26  1  0
 21 27  1  0
 27 28  2  0
 27 29  1  0
 17 30  1  0
 30 31  2  0
 11 32  1  0
  8  2  1  0
 31 14  1  0
 32  6  1  0
  1 33  1  0
  1 34  1  0
  8 35  1  0
  9 36  1  0
 10 37  1  0
 10 38  1  0
 11 39  1  1
 12 40  1  0
 12 41  1  0
 13 42  1  0
 15 43  1  0
 16 44  1  0
 20 45  1  0
 21 46  1  6
 22 47  1  0
 22 48  1  0
 23 49  1  0
 23 50  1  0
 26 51  1  0
 29 52  1  0
 30 53  1  0
 31 54  1  0
 32 55  1  0
M  END
$$$$

     RDKit          3D

 55 57  0  0  0  0  0  0  0  0999 V2000
   10.2660    1.7143    0.6371 N   0  0  0  0  0  0  0  0  0  0  0  0
    9.0057    1.0532    0.5005 C   0  0  0  0  0  0  0  0  0  0  0  0
    8.9077   -0.2925    0.5931 N   0  0  0  0  0  0  0  0  0  0  0  0
    7.7244   -0.9225    0.4655 C   0  0  0  0  0  0  0  0  0  0  0  0
    7.6154   -2.1882    0.5501 O   0  0  0  0  0  0  0  0  0  0  0  0
    6.5802   -0.2201    0.2375 C   0  0  0  0  0  0  0  0  0  0  0  0
    6.6626    1.1620    0.1397 C   0  0  0  0  0  0  0  0  0  0  0  0
    7.8657    1.7307    0.2752 N   0  0  0  0  0  0  0  0  0  0  0  0
    5.4704    1.8748   -0.0961 N   0  0  0  0  0  0  0  0  0  0  0  0
    4.2417    1.3006   -0.6045 C   0  0  0  0  0  0  0  0  0  0  0  0
    4.2111   -0.1882   -0.6146 C   0  0  2  0  0  0  0  0  0  0  0  0
    2.8829   -0.6431   -0.0518 C   0  0  0  0  0  0  0  0  0  0  0  0
    1.7894   -0.1375   -0.8459 N   0  0  0  0  0  0  0  0  0  0  0  0
    0.4204   -0.4318   -0.5137 C   0  0  0  0  0  0  0  0  0  0  0  0
   -0.5891    0.0726   -1.2980 C   0  0  0  0  0  0  0  0  0  0  0  0
   -1.9238   -0.1730   -1.0321 C   0  0  0  0  0  0  0  0  0  0  0  0
   -2.2533   -0.9474    0.0526 C   0  0  0  0  0  0  0  0  0  0  0  0
   -3.6268   -1.2577    0.4097 C   0  0  0  0  0  0  0  0  0  0  0  0
   -3.8607   -1.9734    1.4266 O   0  0  0  0  0  0  0  0  0  0  0  0
   -4.7478   -0.8116   -0.3077 N   0  0  0  0  0  0  0  0  0  0  0  0
   -6.1394   -1.1376    0.0716 C   0  0  1  0  0  0  0  0  0  0  0  0
   -6.7953    0.2022    0.2759 C   0  0  0  0  0  0  0  0  0  0  0  0
   -8.2267    0.1657    0.6755 C   0  0  0  0  0  0  0  0  0  0  0  0
   -8.7653    1.5620    0.8702 C   0  0  0  0  0  0  0  0  0  0  0  0
   -9.9452    1.7650    1.2086 O   0  0  0  0  0  0  0  0  0  0  0  0
   -7.9318    2.6480    0.6691 O   0  0  0  0  0  0  0  0  0  0  0  0
   -6.8134   -1.8612   -1.0082 C   0  0  0  0  0  0  0  0  0  0  0  0
   -6.2596   -2.1095   -2.1229 O   0  0  0  0  0  0  0  0  0  0  0  0
   -8.1119   -2.3135   -0.8457 O   0  0  0  0  0  0  0  0  0  0  0  0
   -1.2379   -1.4485    0.8326 C   0  0  0  0  0  0  0  0  0  0  0  0
    0.0918   -1.2055    0.5700 C   0  0  0  0  0  0  0  0  0  0  0  0
    5.3002   -0.8067    0.0911 N   0  0  0  0  0  0  0  0  0  0  0  0
   10.7621    1.7016    1.5545 H   0  0  0  0  0  0  0  0  0  0  0  0
   10.7343    2.2217   -0.1397 H   0  0  0  0  0  0  0  0  0  0  0  0
    7.9119    2.7711    0.1992 H   0  0  0  0  0  0  0  0  0  0  0  0
    5.4631    2.8917    0.1075 H   0  0  0  0  0  0  0  0  0  0  0  0
    4.1527    1.6654   -1.6697 H   0  0  0  0  0  0  0  0  0  0  0  0
    3.3764    1.7461   -0.0684 H   0  0  0  0  0  0  0  0  0  0  0  0
    4.2487   -0.6046   -1.6643 H   0  0  0  0  0  0  0  0  0  0  0  0
    2.7791   -0.3139    1.0166 H   0  0  0  0  0  0  0  0  0  0  0  0
    2.8741   -1.7678    0.0083 H   0  0  0  0  0  0  0  0  0  0  0  0
    2.0185    0.4519   -1.6743 H   0  0  0  0  0  0  0  0  0  0  0  0
   -0.3699    0.7002   -2.1799 H   0  0  0  0  0  0  0  0  0  0  0  0
   -2.7043    0.2473   -1.6820 H   0  0  0  0  0  0  0  0  0  0  0  0
   -4.6130   -0.2222   -1.1495 H   0  0  0  0  0  0  0  0  0  0  0  0
   -6.1579   -1.7623    0.9720 H   0  0  0  0  0  0  0  0  0  0  0  0
   -6.6094    0.8452   -0.6232 H   0  0  0  0  0  0  0  0  0  0  0  0
   -6.2375    0.7464    1.0961 H   0  0  0  0  0  0  0  0  0  0  0  0
   -8.8266   -0.2791   -0.1567 H   0  0  0  0  0  0  0  0  0  0  0  0
   -8.3482   -0.3549    1.6293 H   0  0  0  0  0  0  0  0  0  0  0  0
   -8.2734    3.5296    0.3044 H   0  0  0  0  0  0  0  0  0  0  0  0
   -8.5479   -2.9647   -1.4998 H   0  0  0  0  0  0  0  0  0  0  0  0
   -1.4681   -2.0738    1.7109 H   0  0  0  0  0  0  0  0  0  0  0  0
    0.8862   -1.6170    1.2078 H   0  0  0  0  0  0  0  0  0  0  0  0
    5.1412   -1.7397    0.5197 H   0  0  0  0  0  0  0  0  0  0  0  0
  1  2  1  0
  2  3  2  0
  3  4  1  0
  4  5  2  0
  4  6  1  0
  6  7  2  0
  7  8  1  0
  7  9  1  0
  9 10  1  0
 10 11  1  0
 11 12  1  0
 12 13  1  0
 13 14  1  0
 14 15  2  0
 15 16  1  0
 16 17  2  0
 17 18  1  0
 18 19  2  0
 18 20  1  0
 20 21  1  0
 21 22  1  0
 22 23  1  0
 23 24  1  0
 24 25  2  0
 24 26  1  0
 21 27  1  0
 27 28  2  0
 27 29  1  0
 17 30  1  0
 30 31  2  0
 11 32  1  0
  8  2  1  0
 31 14  1  0
 32  6  1  0
  1 33  1  0
  1 34  1  0
  8 35  1  0
  9 36  1  0
 10 37  1  0
 10 38  1  0
 11 39  1  6
 12 40  1  0
 12 41  1  0
 13 42  1  0
 15 43  1  0
 16 44  1  0
 20 45  1  0
 21 46  1  1
 22 47  1  0
 22 48  1  0
 23 49  1  0
 23 50  1  0
 26 51  1  0
 29 52  1  0
 30 53  1  0
 31 54  1  0
 32 55  1  0
M  END
$$$$

     RDKit          3D

 55 57  0  0  0  0  0  0  0  0999 V2000
  -10.2790   -0.1494   -0.1598 N   0  0  0  0  0  0  0  0  0  0  0  0
   -8.9216   -0.5519   -0.2442 C   0  0  0  0  0  0  0  0  0  0  0  0
   -8.5494   -1.8359   -0.3904 N   0  0  0  0  0  0  0  0  0  0  0  0
   -7.2309   -2.1103   -0.4648 C   0  0  0  0  0  0  0  0  0  0  0  0
   -6.8103   -3.2965   -0.6030 O   0  0  0  0  0  0  0  0  0  0  0  0
   -6.2780   -1.1291   -0.3960 C   0  0  0  0  0  0  0  0  0  0  0  0
   -6.6877    0.1797   -0.2462 C   0  0  0  0  0  0  0  0  0  0  0  0
   -8.0105    0.4316   -0.1741 N   0  0  0  0  0  0  0  0  0  0  0  0
   -5.7106    1.1933   -0.1737 N   0  0  0  0  0  0  0  0  0  0  0  0
   -4.3051    0.9627   -0.3830 C   0  0  0  0  0  0  0  0  0  0  0  0
   -3.9835   -0.4393    0.1285 C   0  0  2  0  0  0  0  0  0  0  0  0
   -2.5189   -0.7385   -0.1200 C   0  0  0  0  0  0  0  0  0  0  0  0
   -1.7232    0.2111    0.5800 N   0  0  0  0  0  0  0  0  0  0  0  0
   -0.2907    0.3040    0.4384 C   0  0  0  0  0  0  0  0  0  0  0  0
    0.3995   -0.4505   -0.4821 C   0  0  0  0  0  0  0  0  0  0  0  0
    1.7799   -0.3359   -0.6090 C   0  0  0  0  0  0  0  0  0  0  0  0
    2.5004    0.5303    0.1786 C   0  0  0  0  0  0  0  0  0  0  0  0
    3.9715    0.6664    0.0060 C   0  0  0  0  0  0  0  0  0  0  0  0
    4.3424    0.6885   -1.1756 O   0  0  0  0  0  0  0  0  0  0  0  0
    4.8457    0.7593    1.0795 N   0  0  0  0  0  0  0  0  0  0  0  0
    6.2569    0.9185    1.0462 C   0  0  1  0  0  0  0  0  0  0  0  0
    7.0812   -0.2371    1.4665 C   0  0  0  0  0  0  0  0  0  0  0  0
    6.9682   -1.4995    0.7021 C   0  0  0  0  0  0  0  0  0  0  0  0
    7.3591   -1.3560   -0.7010 C   0  0  0  0  0  0  0  0  0  0  0  0
    6.5149   -1.3799   -1.6579 O   0  0  0  0  0  0  0  0  0  0  0  0
    8.6961   -1.1804   -1.0683 O   0  0  0  0  0  0  0  0  0  0  0  0
    6.7646    1.6734   -0.1178 C   0  0  0  0  0  0  0  0  0  0  0  0
    6.0963    2.2632   -0.9797 O   0  0  0  0  0  0  0  0  0  0  0  0
    8.1574    1.7593   -0.3114 O   0  0  0  0  0  0  0  0  0  0  0  0
    1.8188    1.2876    1.1036 C   0  0  0  0  0  0  0  0  0  0  0  0
    0.4328    1.1684    1.2239 C   0  0  0  0  0  0  0  0  0  0  0  0
   -4.8772   -1.3852   -0.4681 N   0  0  0  0  0  0  0  0  0  0  0  0
  -10.8832   -0.4808    0.6126 H   0  0  0  0  0  0  0  0  0  0  0  0
  -10.6521    0.4770   -0.8795 H   0  0  0  0  0  0  0  0  0  0  0  0
   -8.3062    1.4362   -0.0601 H   0  0  0  0  0  0  0  0  0  0  0  0
   -6.0336    2.1752    0.0468 H   0  0  0  0  0  0  0  0  0  0  0  0
   -4.0057    1.0188   -1.4588 H   0  0  0  0  0  0  0  0  0  0  0  0
   -3.6987    1.7115    0.1395 H   0  0  0  0  0  0  0  0  0  0  0  0
   -4.2052   -0.4054    1.2235 H   0  0  0  0  0  0  0  0  0  0  0  0
   -2.3059   -0.8313   -1.2029 H   0  0  0  0  0  0  0  0  0  0  0  0
   -2.3336   -1.7642    0.2979 H   0  0  0  0  0  0  0  0  0  0  0  0
   -2.2132    0.8815    1.2393 H   0  0  0  0  0  0  0  0  0  0  0  0
   -0.1495   -1.1369   -1.1017 H   0  0  0  0  0  0  0  0  0  0  0  0
    2.3391   -0.9390   -1.3363 H   0  0  0  0  0  0  0  0  0  0  0  0
    4.3764    0.7038    2.0683 H   0  0  0  0  0  0  0  0  0  0  0  0
    6.4680    1.7255    1.9014 H   0  0  0  0  0  0  0  0  0  0  0  0
    6.8755   -0.4163    2.5673 H   0  0  0  0  0  0  0  0  0  0  0  0
    8.1847    0.0286    1.4768 H   0  0  0  0  0  0  0  0  0  0  0  0
    5.9383   -1.9025    0.8136 H   0  0  0  0  0  0  0  0  0  0  0  0
    7.6527   -2.2484    1.2020 H   0  0  0  0  0  0  0  0  0  0  0  0
    8.9130   -1.0364   -2.0500 H   0  0  0  0  0  0  0  0  0  0  0  0
    8.5603    2.6095   -0.7525 H   0  0  0  0  0  0  0  0  0  0  0  0
    2.3805    1.9722    1.7256 H   0  0  0  0  0  0  0  0  0  0  0  0
   -0.1036    1.7667    1.9567 H   0  0  0  0  0  0  0  0  0  0  0  0
   -4.6072   -2.2675   -0.9611 H   0  0  0  0  0  0  0  0  0  0  0  0
  1  2  1  0
  2  3  2  0
  3  4  1  0
  4  5  2  0
  4  6  1  0
  6  7  2  0
  7  8  1  0
  7  9  1  0
  9 10  1  0
 10 11  1  0
 11 12  1  0
 12 13  1  0
 13 14  1  0
 14 15  2  0
 15 16  1  0
 16 17  2  0
 17 18  1  0
 18 19  2  0
 18 20  1  0
 20 21  1  0
 21 22  1  0
 22 23  1  0
 23 24  1  0
 24 25  2  0
 24 26  1  0
 21 27  1  0
 27 28  2  0
 27 29  1  0
 17 30  1  0
 30 31  2  0
 11 32  1  0
  8  2  1  0
 31 14  1  0
 32  6  1  0
  1 33  1  0
  1 34  1  0
  8 35  1  0
  9 36  1  0
 10 37  1  0
 10 38  1  0
 11 39  1  1
 12 40  1  0
 12 41  1  0
 13 42  1  0
 15 43  1  0
 16 44  1  0
 20 45  1  0
 21 46  1  1
 22 47  1  0
 22 48  1  0
 23 49  1  0
 23 50  1  0
 26 51  1  0
 29 52  1  0
 30 53  1  0
 31 54  1  0
 32 55  1  0
M  END
$$$$

     RDKit          3D

 55 57  0  0  0  0  0  0  0  0999 V2000
    8.7701    1.1338    1.7871 N   0  0  0  0  0  0  0  0  0  0  0  0
    7.7525    0.3675    1.1646 C   0  0  0  0  0  0  0  0  0  0  0  0
    7.5624   -0.9396    1.4674 N   0  0  0  0  0  0  0  0  0  0  0  0
    6.5994   -1.6771    0.8789 C   0  0  0  0  0  0  0  0  0  0  0  0
    6.4239   -2.8985    1.1623 O   0  0  0  0  0  0  0  0  0  0  0  0
    5.7645   -1.1173   -0.0626 C   0  0  0  0  0  0  0  0  0  0  0  0
    5.9646    0.2340   -0.3711 C   0  0  0  0  0  0  0  0  0  0  0  0
    6.9269    0.9056    0.2392 N   0  0  0  0  0  0  0  0  0  0  0  0
    5.0869    0.7820   -1.3448 N   0  0  0  0  0  0  0  0  0  0  0  0
    4.4146    0.0015   -2.3638 C   0  0  0  0  0  0  0  0  0  0  0  0
    4.1057   -1.4032   -1.9488 C   0  0  2  0  0  0  0  0  0  0  0  0
    2.6025   -1.4777   -1.7375 C   0  0  0  0  0  0  0  0  0  0  0  0
    2.2553   -0.5369   -0.7042 N   0  0  0  0  0  0  0  0  0  0  0  0
    0.8986   -0.3311   -0.2839 C   0  0  0  0  0  0  0  0  0  0  0  0
    0.5881    0.5508    0.7261 C   0  0  0  0  0  0  0  0  0  0  0  0
   -0.7046    0.7765    1.1469 C   0  0  0  0  0  0  0  0  0  0  0  0
   -1.7723    0.1048    0.5513 C   0  0  0  0  0  0  0  0  0  0  0  0
   -3.1408    0.3691    1.0232 C   0  0  0  0  0  0  0  0  0  0  0  0
   -3.3460    1.1455    1.9957 O   0  0  0  0  0  0  0  0  0  0  0  0
   -4.2533   -0.2296    0.4073 N   0  0  0  0  0  0  0  0  0  0  0  0
   -5.5911    0.0853    0.9322 C   0  0  1  0  0  0  0  0  0  0  0  0
   -6.3004    0.7706   -0.2137 C   0  0  0  0  0  0  0  0  0  0  0  0
   -7.6996    1.2104    0.0923 C   0  0  0  0  0  0  0  0  0  0  0  0
   -8.2234    1.8661   -1.1296 C   0  0  0  0  0  0  0  0  0  0  0  0
   -8.2306    1.2330   -2.2034 O   0  0  0  0  0  0  0  0  0  0  0  0
   -8.6899    3.1623   -1.0473 O   0  0  0  0  0  0  0  0  0  0  0  0
   -6.2515   -1.1152    1.4434 C   0  0  0  0  0  0  0  0  0  0  0  0
   -5.6764   -2.2258    1.3761 O   0  0  0  0  0  0  0  0  0  0  0  0
   -7.5027   -1.0474    2.0058 O   0  0  0  0  0  0  0  0  0  0  0  0
   -1.4686   -0.7740   -0.4545 C   0  0  0  0  0  0  0  0  0  0  0  0
   -0.1540   -0.9983   -0.8752 C   0  0  0  0  0  0  0  0  0  0  0  0
    4.7370   -1.8131   -0.7221 N   0  0  0  0  0  0  0  0  0  0  0  0
    9.4804    1.6885    1.2580 H   0  0  0  0  0  0  0  0  0  0  0  0
    8.8311    1.1601    2.8252 H   0  0  0  0  0  0  0  0  0  0  0  0
    7.0644    1.9184    0.0015 H   0  0  0  0  0  0  0  0  0  0  0  0
    4.9437    1.8370   -1.2830 H   0  0  0  0  0  0  0  0  0  0  0  0
    3.5107    0.5753   -2.6621 H   0  0  0  0  0  0  0  0  0  0  0  0
    5.0587   -0.0029   -3.2915 H   0  0  0  0  0  0  0  0  0  0  0  0
    4.3487   -2.0788   -2.8046 H   0  0  0  0  0  0  0  0  0  0  0  0
    2.0504   -1.3068   -2.6864 H   0  0  0  0  0  0  0  0  0  0  0  0
    2.3044   -2.4944   -1.3959 H   0  0  0  0  0  0  0  0  0  0  0  0
    2.9937    0.0136   -0.2473 H   0  0  0  0  0  0  0  0  0  0  0  0
    1.4228    1.0878    1.2069 H   0  0  0  0  0  0  0  0  0  0  0  0
   -0.9545    1.4685    1.9382 H   0  0  0  0  0  0  0  0  0  0  0  0
   -4.1906   -0.8799   -0.3944 H   0  0  0  0  0  0  0  0  0  0  0  0
   -5.4819    0.7804    1.7889 H   0  0  0  0  0  0  0  0  0  0  0  0
   -6.3652    0.1204   -1.1163 H   0  0  0  0  0  0  0  0  0  0  0  0
   -5.6741    1.6349   -0.5255 H   0  0  0  0  0  0  0  0  0  0  0  0
   -7.6605    1.9302    0.9384 H   0  0  0  0  0  0  0  0  0  0  0  0
   -8.3107    0.3068    0.3491 H   0  0  0  0  0  0  0  0  0  0  0  0
   -8.9450    3.7183   -1.8544 H   0  0  0  0  0  0  0  0  0  0  0  0
   -8.0017   -1.8663    2.3642 H   0  0  0  0  0  0  0  0  0  0  0  0
   -2.2930   -1.3134   -0.9349 H   0  0  0  0  0  0  0  0  0  0  0  0
    0.0232   -1.7135   -1.6833 H   0  0  0  0  0  0  0  0  0  0  0  0
    4.3974   -2.6985   -0.2941 H   0  0  0  0  0  0  0  0  0  0  0  0
  1  2  1  0
  2  3  2  0
  3  4  1  0
  4  5  2  0
  4  6  1  0
  6  7  2  0
  7  8  1  0
  7  9  1  0
  9 10  1  0
 10 11  1  0
 11 12  1  0
 12 13  1  0
 13 14  1  0
 14 15  2  0
 15 16  1  0
 16 17  2  0
 17 18  1  0
 18 19  2  0
 18 20  1  0
 20 21  1  0
 21 22  1  0
 22 23  1  0
 23 24  1  0
 24 25  2  0
 24 26  1  0
 21 27  1  0
 27 28  2  0
 27 29  1  0
 17 30  1  0
 30 31  2  0
 11 32  1  0
  8  2  1  0
 31 14  1  0
 32  6  1  0
  1 33  1  0
  1 34  1  0
  8 35  1  0
  9 36  1  0
 10 37  1  0
 10 38  1  0
 11 39  1  6
 12 40  1  0
 12 41  1  0
 13 42  1  0
 15 43  1  0
 16 44  1  0
 20 45  1  0
 21 46  1  1
 22 47  1  0
 22 48  1  0
 23 49  1  0
 23 50  1  0
 26 51  1  0
 29 52  1  0
 30 53  1  0
 31 54  1  0
 32 55  1  0
M  END
$$$$

     RDKit          3D

 55 57  0  0  0  0  0  0  0  0999 V2000
    9.6516    0.8212    0.9538 N   0  0  0  0  0  0  0  0  0  0  0  0
    8.3119    0.3909    0.6795 C   0  0  0  0  0  0  0  0  0  0  0  0
    7.9078   -0.7703    1.2054 N   0  0  0  0  0  0  0  0  0  0  0  0
    6.6523   -1.1873    0.9570 C   0  0  0  0  0  0  0  0  0  0  0  0
    6.2020   -2.2722    1.4196 O   0  0  0  0  0  0  0  0  0  0  0  0
    5.7968   -0.4250    0.1705 C   0  0  0  0  0  0  0  0  0  0  0  0
    6.2565    0.7861   -0.3632 C   0  0  0  0  0  0  0  0  0  0  0  0
    7.5129    1.1662   -0.0927 N   0  0  0  0  0  0  0  0  0  0  0  0
    5.3947    1.5746   -1.1662 N   0  0  0  0  0  0  0  0  0  0  0  0
    3.9922    1.2512   -1.3200 C   0  0  0  0  0  0  0  0  0  0  0  0
    3.8259   -0.2560   -1.2942 C   0  0  2  0  0  0  0  0  0  0  0  0
    2.3469   -0.5876   -1.2910 C   0  0  0  0  0  0  0  0  0  0  0  0
    1.7011   -0.0228   -0.1201 N   0  0  0  0  0  0  0  0  0  0  0  0
    0.3102   -0.1709    0.1038 C   0  0  0  0  0  0  0  0  0  0  0  0
   -0.5238   -0.8109   -0.7855 C   0  0  0  0  0  0  0  0  0  0  0  0
   -1.8949   -0.9360   -0.5176 C   0  0  0  0  0  0  0  0  0  0  0  0
   -2.4468   -0.4294    0.6303 C   0  0  0  0  0  0  0  0  0  0  0  0
   -3.8611   -0.5251    0.9605 C   0  0  0  0  0  0  0  0  0  0  0  0
   -4.2502   -0.2328    2.1213 O   0  0  0  0  0  0  0  0  0  0  0  0
   -4.8777   -0.9353    0.0494 N   0  0  0  0  0  0  0  0  0  0  0  0
   -6.2502   -1.0360    0.3507 C   0  0  1  0  0  0  0  0  0  0  0  0
   -7.2156   -0.0858   -0.2730 C   0  0  0  0  0  0  0  0  0  0  0  0
   -7.0685    1.3541    0.0010 C   0  0  0  0  0  0  0  0  0  0  0  0
   -5.8347    1.9400   -0.5323 C   0  0  0  0  0  0  0  0  0  0  0  0
   -5.1303    1.2937   -1.3384 O   0  0  0  0  0  0  0  0  0  0  0  0
   -5.4162    3.2308   -0.1549 O   0  0  0  0  0  0  0  0  0  0  0  0
   -6.7351   -2.4194    0.0046 C   0  0  0  0  0  0  0  0  0  0  0  0
   -5.9019   -3.2246   -0.4643 O   0  0  0  0  0  0  0  0  0  0  0  0
   -8.0657   -2.7692    0.2068 O   0  0  0  0  0  0  0  0  0  0  0  0
   -1.5871    0.2082    1.5062 C   0  0  0  0  0  0  0  0  0  0  0  0
   -0.2387    0.3457    1.2691 C   0  0  0  0  0  0  0  0  0  0  0  0
    4.4739   -0.7982   -0.1289 N   0  0  0  0  0  0  0  0  0  0  0  0
    9.7926    1.6352    1.6189 H   0  0  0  0  0  0  0  0  0  0  0  0
   10.4495    0.3401    0.5065 H   0  0  0  0  0  0  0  0  0  0  0  0
    7.8697    2.0695   -0.4848 H   0  0  0  0  0  0  0  0  0  0  0  0
    5.7645    2.4091   -1.6638 H   0  0  0  0  0  0  0  0  0  0  0  0
    3.4553    1.7655   -0.5146 H   0  0  0  0  0  0  0  0  0  0  0  0
    3.6631    1.6065   -2.3357 H   0  0  0  0  0  0  0  0  0  0  0  0
    4.2638   -0.6682   -2.2031 H   0  0  0  0  0  0  0  0  0  0  0  0
    2.2702   -1.7029   -1.2187 H   0  0  0  0  0  0  0  0  0  0  0  0
    1.8927   -0.2849   -2.2331 H   0  0  0  0  0  0  0  0  0  0  0  0
    2.2995    0.5114    0.5787 H   0  0  0  0  0  0  0  0  0  0  0  0
   -0.1068   -1.2181   -1.6978 H   0  0  0  0  0  0  0  0  0  0  0  0
   -2.5339   -1.4385   -1.2210 H   0  0  0  0  0  0  0  0  0  0  0  0
   -4.5229   -1.2033   -0.9180 H   0  0  0  0  0  0  0  0  0  0  0  0
   -6.4390   -0.9566    1.4721 H   0  0  0  0  0  0  0  0  0  0  0  0
   -8.2750   -0.4091   -0.0012 H   0  0  0  0  0  0  0  0  0  0  0  0
   -7.1814   -0.3143   -1.3885 H   0  0  0  0  0  0  0  0  0  0  0  0
   -7.9243    1.9063   -0.5153 H   0  0  0  0  0  0  0  0  0  0  0  0
   -7.2163    1.6076    1.0861 H   0  0  0  0  0  0  0  0  0  0  0  0
   -4.6890    3.6388   -0.7232 H   0  0  0  0  0  0  0  0  0  0  0  0
   -8.2826   -3.7574    0.2274 H   0  0  0  0  0  0  0  0  0  0  0  0
   -2.0145    0.6153    2.4236 H   0  0  0  0  0  0  0  0  0  0  0  0
    0.4330    0.8479    1.9594 H   0  0  0  0  0  0  0  0  0  0  0  0
    3.9938   -1.4680    0.5137 H   0  0  0  0  0  0  0  0  0  0  0  0
  1  2  1  0
  2  3  2  0
  3  4  1  0
  4  5  2  0
  4  6  1  0
  6  7  2  0
  7  8  1  0
  7  9  1  0
  9 10  1  0
 10 11  1  0
 11 12  1  0
 12 13  1  0
 13 14  1  0
 14 15  2  0
 15 16  1  0
 16 17  2  0
 17 18  1  0
 18 19  2  0
 18 20  1  0
 20 21  1  0
 21 22  1  0
 22 23  1  0
 23 24  1  0
 24 25  2  0
 24 26  1  0
 21 27  1  0
 27 28  2  0
 27 29  1  0
 17 30  1  0
 30 31  2  0
 11 32  1  0
  8  2  1  0
 31 14  1  0
 32  6  1  0
  1 33  1  0
  1 34  1  0
  8 35  1  0
  9 36  1  0
 10 37  1  0
 10 38  1  0
 11 39  1  6
 12 40  1  0
 12 41  1  0
 13 42  1  0
 15 43  1  0
 16 44  1  0
 20 45  1  0
 21 46  1  1
 22 47  1  0
 22 48  1  0
 23 49  1  0
 23 50  1  0
 26 51  1  0
 29 52  1  0
 30 53  1  0
 31 54  1  0
 32 55  1  0
M  END
$$$$

     RDKit          3D

 55 57  0  0  0  0  0  0  0  0999 V2000
    9.5425    0.8831   -1.0518 N   0  0  0  0  0  0  0  0  0  0  0  0
    8.1503    0.5917   -0.9139 C   0  0  0  0  0  0  0  0  0  0  0  0
    7.6400   -0.6088   -1.2667 N   0  0  0  0  0  0  0  0  0  0  0  0
    6.3276   -0.9000   -1.1404 C   0  0  0  0  0  0  0  0  0  0  0  0
    5.8955   -2.0148   -1.4756 O   0  0  0  0  0  0  0  0  0  0  0  0
    5.4564    0.0353   -0.6396 C   0  0  0  0  0  0  0  0  0  0  0  0
    5.9880    1.2801   -0.2737 C   0  0  0  0  0  0  0  0  0  0  0  0
    7.2805    1.4979   -0.4241 N   0  0  0  0  0  0  0  0  0  0  0  0
    5.0402    2.2238    0.2593 N   0  0  0  0  0  0  0  0  0  0  0  0
    3.9861    1.7270    1.0639 C   0  0  0  0  0  0  0  0  0  0  0  0
    3.2919    0.5473    0.4713 C   0  0  2  0  0  0  0  0  0  0  0  0
    2.8361   -0.3815    1.6036 C   0  0  0  0  0  0  0  0  0  0  0  0
    2.1441   -1.5379    1.1874 N   0  0  0  0  0  0  0  0  0  0  0  0
    0.8076   -1.4931    0.7319 C   0  0  0  0  0  0  0  0  0  0  0  0
    0.0611   -0.3392    0.7970 C   0  0  0  0  0  0  0  0  0  0  0  0
   -1.2532   -0.2859    0.3703 C   0  0  0  0  0  0  0  0  0  0  0  0
   -1.8701   -1.4009   -0.1410 C   0  0  0  0  0  0  0  0  0  0  0  0
   -3.2750   -1.3759   -0.5805 C   0  0  0  0  0  0  0  0  0  0  0  0
   -3.7430   -2.2455   -1.3531 O   0  0  0  0  0  0  0  0  0  0  0  0
   -4.1135   -0.3406   -0.1116 N   0  0  0  0  0  0  0  0  0  0  0  0
   -5.5543   -0.3171   -0.5591 C   0  0  1  0  0  0  0  0  0  0  0  0
   -6.3031   -0.4859    0.7236 C   0  0  0  0  0  0  0  0  0  0  0  0
   -7.7724   -0.5303    0.7029 C   0  0  0  0  0  0  0  0  0  0  0  0
   -8.5150    0.6349    0.2621 C   0  0  0  0  0  0  0  0  0  0  0  0
   -9.4568    0.5146   -0.5780 O   0  0  0  0  0  0  0  0  0  0  0  0
   -8.2426    1.9298    0.7300 O   0  0  0  0  0  0  0  0  0  0  0  0
   -5.8169    0.9645   -1.1981 C   0  0  0  0  0  0  0  0  0  0  0  0
   -4.9018    1.8663   -1.1093 O   0  0  0  0  0  0  0  0  0  0  0  0
   -6.9365    1.3463   -1.9060 O   0  0  0  0  0  0  0  0  0  0  0  0
   -1.1360   -2.5702   -0.2149 C   0  0  0  0  0  0  0  0  0  0  0  0
    0.1655   -2.6006    0.2131 C   0  0  0  0  0  0  0  0  0  0  0  0
    4.0665   -0.1564   -0.4832 N   0  0  0  0  0  0  0  0  0  0  0  0
   10.1597    0.9946   -0.2032 H   0  0  0  0  0  0  0  0  0  0  0  0
   10.0231    1.0006   -1.9693 H   0  0  0  0  0  0  0  0  0  0  0  0
    7.6454    2.4382   -0.1441 H   0  0  0  0  0  0  0  0  0  0  0  0
    5.2361    3.2201   -0.0038 H   0  0  0  0  0  0  0  0  0  0  0  0
    4.4456    1.3515    2.0380 H   0  0  0  0  0  0  0  0  0  0  0  0
    3.2506    2.5384    1.3478 H   0  0  0  0  0  0  0  0  0  0  0  0
    2.3959    0.9674   -0.0767 H   0  0  0  0  0  0  0  0  0  0  0  0
    2.2394    0.2981    2.2841 H   0  0  0  0  0  0  0  0  0  0  0  0
    3.7355   -0.6273    2.2086 H   0  0  0  0  0  0  0  0  0  0  0  0
    2.6162   -2.4782    1.2058 H   0  0  0  0  0  0  0  0  0  0  0  0
    0.4825    0.5901    1.2021 H   0  0  0  0  0  0  0  0  0  0  0  0
   -1.8054    0.6642    0.4407 H   0  0  0  0  0  0  0  0  0  0  0  0
   -3.8137    0.4263    0.5353 H   0  0  0  0  0  0  0  0  0  0  0  0
   -5.6796   -1.1894   -1.2008 H   0  0  0  0  0  0  0  0  0  0  0  0
   -5.9198   -1.4454    1.2137 H   0  0  0  0  0  0  0  0  0  0  0  0
   -5.9470    0.3244    1.4345 H   0  0  0  0  0  0  0  0  0  0  0  0
   -8.0670   -1.3879    0.0351 H   0  0  0  0  0  0  0  0  0  0  0  0
   -8.1475   -0.8155    1.7409 H   0  0  0  0  0  0  0  0  0  0  0  0
   -8.6042    2.7000    0.1837 H   0  0  0  0  0  0  0  0  0  0  0  0
   -6.8113    1.8299   -2.8078 H   0  0  0  0  0  0  0  0  0  0  0  0
   -1.6170   -3.4609   -0.6169 H   0  0  0  0  0  0  0  0  0  0  0  0
    0.7416   -3.5155    0.1550 H   0  0  0  0  0  0  0  0  0  0  0  0
    3.6510   -0.8817   -1.1506 H   0  0  0  0  0  0  0  0  0  0  0  0
  1  2  1  0
  2  3  2  0
  3  4  1  0
  4  5  2  0
  4  6  1  0
  6  7  2  0
  7  8  1  0
  7  9  1  0
  9 10  1  0
 10 11  1  0
 11 12  1  0
 12 13  1  0
 13 14  1  0
 14 15  2  0
 15 16  1  0
 16 17  2  0
 17 18  1  0
 18 19  2  0
 18 20  1  0
 20 21  1  0
 21 22  1  0
 22 23  1  0
 23 24  1  0
 24 25  2  0
 24 26  1  0
 21 27  1  0
 27 28  2  0
 27 29  1  0
 17 30  1  0
 30 31  2  0
 11 32  1  0
  8  2  1  0
 31 14  1  0
 32  6  1  0
  1 33  1  0
  1 34  1  0
  8 35  1  0
  9 36  1  0
 10 37  1  0
 10 38  1  0
 11 39  1  6
 12 40  1  0
 12 41  1  0
 13 42  1  0
 15 43  1  0
 16 44  1  0
 20 45  1  0
 21 46  1  6
 22 47  1  0
 22 48  1  0
 23 49  1  0
 23 50  1  0
 26 51  1  0
 29 52  1  0
 30 53  1  0
 31 54  1  0
 32 55  1  0
M  END
$$$$

     RDKit          3D

 55 57  0  0  0  0  0  0  0  0999 V2000
    9.1304   -1.9300   -0.5476 N   0  0  0  0  0  0  0  0  0  0  0  0
    7.7848   -1.4639   -0.4136 C   0  0  0  0  0  0  0  0  0  0  0  0
    7.0292   -2.0129    0.5575 N   0  0  0  0  0  0  0  0  0  0  0  0
    5.7699   -1.6678    0.7830 C   0  0  0  0  0  0  0  0  0  0  0  0
    5.0270   -2.1495    1.6752 O   0  0  0  0  0  0  0  0  0  0  0  0
    5.2271   -0.6897   -0.0378 C   0  0  0  0  0  0  0  0  0  0  0  0
    5.9929   -0.1268   -1.0282 C   0  0  0  0  0  0  0  0  0  0  0  0
    7.2769   -0.5248   -1.2066 N   0  0  0  0  0  0  0  0  0  0  0  0
    5.4114    0.8703   -1.8514 N   0  0  0  0  0  0  0  0  0  0  0  0
    4.3314    1.6706   -1.3453 C   0  0  0  0  0  0  0  0  0  0  0  0
    3.3908    0.9574   -0.4369 C   0  0  2  0  0  0  0  0  0  0  0  0
    3.0408    1.8459    0.7448 C   0  0  0  0  0  0  0  0  0  0  0  0
    2.1372    1.1154    1.5997 N   0  0  0  0  0  0  0  0  0  0  0  0
    0.8278    0.7919    1.1780 C   0  0  0  0  0  0  0  0  0  0  0  0
    0.0610   -0.1466    1.8652 C   0  0  0  0  0  0  0  0  0  0  0  0
   -1.2152   -0.4506    1.4580 C   0  0  0  0  0  0  0  0  0  0  0  0
   -1.7890    0.1659    0.3466 C   0  0  0  0  0  0  0  0  0  0  0  0
   -3.1361   -0.1565   -0.0928 C   0  0  0  0  0  0  0  0  0  0  0  0
   -3.3353   -1.0041   -1.0347 O   0  0  0  0  0  0  0  0  0  0  0  0
   -4.2972    0.4248    0.4728 N   0  0  0  0  0  0  0  0  0  0  0  0
   -5.6270    0.0467   -0.0064 C   0  0  1  0  0  0  0  0  0  0  0  0
   -6.4781   -0.4199    1.1149 C   0  0  0  0  0  0  0  0  0  0  0  0
   -7.8409   -0.8311    0.6614 C   0  0  0  0  0  0  0  0  0  0  0  0
   -7.7545   -1.9196   -0.3476 C   0  0  0  0  0  0  0  0  0  0  0  0
   -7.9313   -1.7286   -1.5687 O   0  0  0  0  0  0  0  0  0  0  0  0
   -7.4595   -3.2184    0.0912 O   0  0  0  0  0  0  0  0  0  0  0  0
   -6.2189    1.2174   -0.6624 C   0  0  0  0  0  0  0  0  0  0  0  0
   -5.5258    2.3027   -0.6480 O   0  0  0  0  0  0  0  0  0  0  0  0
   -7.4276    1.3006   -1.2993 O   0  0  0  0  0  0  0  0  0  0  0  0
   -1.0215    1.0841   -0.3125 C   0  0  0  0  0  0  0  0  0  0  0  0
    0.2835    1.3987    0.0997 C   0  0  0  0  0  0  0  0  0  0  0  0
    3.8960   -0.2694    0.1335 N   0  0  0  0  0  0  0  0  0  0  0  0
    9.3421   -2.7445   -1.1645 H   0  0  0  0  0  0  0  0  0  0  0  0
    9.8672   -1.4222   -0.0088 H   0  0  0  0  0  0  0  0  0  0  0  0
    7.8259   -0.0805   -1.9592 H   0  0  0  0  0  0  0  0  0  0  0  0
    5.7658    1.0204   -2.8121 H   0  0  0  0  0  0  0  0  0  0  0  0
    4.7123    2.6058   -0.8365 H   0  0  0  0  0  0  0  0  0  0  0  0
    3.7684    2.0918   -2.2340 H   0  0  0  0  0  0  0  0  0  0  0  0
    2.5135    0.6618   -1.0465 H   0  0  0  0  0  0  0  0  0  0  0  0
    3.9748    2.1110    1.2473 H   0  0  0  0  0  0  0  0  0  0  0  0
    2.5997    2.7776    0.3432 H   0  0  0  0  0  0  0  0  0  0  0  0
    2.4637    0.8116    2.5706 H   0  0  0  0  0  0  0  0  0  0  0  0
    0.5106   -0.6358    2.7385 H   0  0  0  0  0  0  0  0  0  0  0  0
   -1.7963   -1.1847    2.0072 H   0  0  0  0  0  0  0  0  0  0  0  0
   -4.1707    1.1258    1.2363 H   0  0  0  0  0  0  0  0  0  0  0  0
   -5.4905   -0.7251   -0.7795 H   0  0  0  0  0  0  0  0  0  0  0  0
   -6.0394   -1.2891    1.6676 H   0  0  0  0  0  0  0  0  0  0  0  0
   -6.5781    0.3671    1.9195 H   0  0  0  0  0  0  0  0  0  0  0  0
   -8.3974    0.0059    0.2487 H   0  0  0  0  0  0  0  0  0  0  0  0
   -8.4188   -1.2351    1.5469 H   0  0  0  0  0  0  0  0  0  0  0  0
   -6.9223   -3.8024   -0.5605 H   0  0  0  0  0  0  0  0  0  0  0  0
   -7.7093    2.1279   -1.8174 H   0  0  0  0  0  0  0  0  0  0  0  0
   -1.4100    1.5964   -1.1787 H   0  0  0  0  0  0  0  0  0  0  0  0
    0.8390    2.1581   -0.4686 H   0  0  0  0  0  0  0  0  0  0  0  0
    3.1895   -0.8239    0.6861 H   0  0  0  0  0  0  0  0  0  0  0  0
  1  2  1  0
  2  3  2  0
  3  4  1  0
  4  5  2  0
  4  6  1  0
  6  7  2  0
  7  8  1  0
  7  9  1  0
  9 10  1  0
 10 11  1  0
 11 12  1  0
 12 13  1  0
 13 14  1  0
 14 15  2  0
 15 16  1  0
 16 17  2  0
 17 18  1  0
 18 19  2  0
 18 20  1  0
 20 21  1  0
 21 22  1  0
 22 23  1  0
 23 24  1  0
 24 25  2  0
 24 26  1  0
 21 27  1  0
 27 28  2  0
 27 29  1  0
 17 30  1  0
 30 31  2  0
 11 32  1  0
  8  2  1  0
 31 14  1  0
 32  6  1  0
  1 33  1  0
  1 34  1  0
  8 35  1  0
  9 36  1  0
 10 37  1  0
 10 38  1  0
 11 39  1  6
 12 40  1  0
 12 41  1  0
 13 42  1  0
 15 43  1  0
 16 44  1  0
 20 45  1  0
 21 46  1  6
 22 47  1  0
 22 48  1  0
 23 49  1  0
 23 50  1  0
 26 51  1  0
 29 52  1  0
 30 53  1  0
 31 54  1  0
 32 55  1  0
M  END
$$$$

     RDKit          3D

 55 57  0  0  0  0  0  0  0  0999 V2000
    9.2065    1.8476    0.3151 N   0  0  0  0  0  0  0  0  0  0  0  0
    7.8146    1.5671    0.2812 C   0  0  0  0  0  0  0  0  0  0  0  0
    7.1037    1.8113    1.4232 N   0  0  0  0  0  0  0  0  0  0  0  0
    5.7775    1.5120    1.3834 C   0  0  0  0  0  0  0  0  0  0  0  0
    5.0284    1.6946    2.3782 O   0  0  0  0  0  0  0  0  0  0  0  0
    5.1901    0.9917    0.2548 C   0  0  0  0  0  0  0  0  0  0  0  0
    5.9604    0.7727   -0.8559 C   0  0  0  0  0  0  0  0  0  0  0  0
    7.2836    1.0636   -0.8356 N   0  0  0  0  0  0  0  0  0  0  0  0
    5.3705    0.2477   -2.0292 N   0  0  0  0  0  0  0  0  0  0  0  0
    3.9046    0.0904   -2.0664 C   0  0  0  0  0  0  0  0  0  0  0  0
    3.5220   -0.4551   -0.7304 C   0  0  2  0  0  0  0  0  0  0  0  0
    2.1566   -0.9365   -0.6080 C   0  0  0  0  0  0  0  0  0  0  0  0
    1.8949   -1.4077    0.7828 N   0  0  0  0  0  0  0  0  0  0  0  0
    0.4692   -1.4251    1.0709 C   0  0  0  0  0  0  0  0  0  0  0  0
   -0.2486   -2.5018    1.4451 C   0  0  0  0  0  0  0  0  0  0  0  0
   -1.6414   -2.4317    1.4630 C   0  0  0  0  0  0  0  0  0  0  0  0
   -2.3078   -1.2981    1.1127 C   0  0  0  0  0  0  0  0  0  0  0  0
   -3.7246   -1.1900    0.8183 C   0  0  0  0  0  0  0  0  0  0  0  0
   -3.9050   -1.3805   -0.4761 O   0  0  0  0  0  0  0  0  0  0  0  0
   -4.7912   -0.9229    1.6267 N   0  0  0  0  0  0  0  0  0  0  0  0
   -6.0950   -0.8345    0.9159 C   0  0  1  0  0  0  0  0  0  0  0  0
   -5.9923    0.6330    0.4378 C   0  0  0  0  0  0  0  0  0  0  0  0
   -7.0450    1.1287   -0.4235 C   0  0  0  0  0  0  0  0  0  0  0  0
   -6.7647    2.6061   -0.6866 C   0  0  0  0  0  0  0  0  0  0  0  0
   -7.5996    3.2790   -1.3811 O   0  0  0  0  0  0  0  0  0  0  0  0
   -5.6285    3.1922   -0.1817 O   0  0  0  0  0  0  0  0  0  0  0  0
   -6.1147   -1.7223   -0.2277 C   0  0  0  0  0  0  0  0  0  0  0  0
   -5.9345   -1.4145   -1.4689 O   0  0  0  0  0  0  0  0  0  0  0  0
   -6.3454   -3.1148   -0.0119 O   0  0  0  0  0  0  0  0  0  0  0  0
   -1.5385   -0.1746    0.7378 C   0  0  0  0  0  0  0  0  0  0  0  0
   -0.2030   -0.2352    0.7193 C   0  0  0  0  0  0  0  0  0  0  0  0
    3.8070    0.6381    0.2315 N   0  0  0  0  0  0  0  0  0  0  0  0
    9.8618    1.0592    0.3869 H   0  0  0  0  0  0  0  0  0  0  0  0
    9.5299    2.8168    0.2790 H   0  0  0  0  0  0  0  0  0  0  0  0
    7.9022    0.9102   -1.6624 H   0  0  0  0  0  0  0  0  0  0  0  0
    5.9290   -0.0236   -2.8647 H   0  0  0  0  0  0  0  0  0  0  0  0
    3.5386   -0.4671   -2.9065 H   0  0  0  0  0  0  0  0  0  0  0  0
    3.4936    1.1339   -2.1297 H   0  0  0  0  0  0  0  0  0  0  0  0
    4.2349   -1.2998   -0.4965 H   0  0  0  0  0  0  0  0  0  0  0  0
    1.3708   -0.2509   -0.9254 H   0  0  0  0  0  0  0  0  0  0  0  0
    2.0692   -1.9096   -1.1904 H   0  0  0  0  0  0  0  0  0  0  0  0
    2.6263   -1.6595    1.4098 H   0  0  0  0  0  0  0  0  0  0  0  0
    0.2935   -3.4184    1.7208 H   0  0  0  0  0  0  0  0  0  0  0  0
   -2.1985   -3.3216    1.7611 H   0  0  0  0  0  0  0  0  0  0  0  0
   -4.7570   -0.7894    2.6224 H   0  0  0  0  0  0  0  0  0  0  0  0
   -6.8738   -1.0070    1.6454 H   0  0  0  0  0  0  0  0  0  0  0  0
   -4.9788    0.7146   -0.0378 H   0  0  0  0  0  0  0  0  0  0  0  0
   -5.8649    1.2250    1.3830 H   0  0  0  0  0  0  0  0  0  0  0  0
   -6.8543    0.6860   -1.4757 H   0  0  0  0  0  0  0  0  0  0  0  0
   -8.0585    1.0356   -0.1317 H   0  0  0  0  0  0  0  0  0  0  0  0
   -5.5448    4.1994   -0.0613 H   0  0  0  0  0  0  0  0  0  0  0  0
   -5.8457   -3.7310   -0.7127 H   0  0  0  0  0  0  0  0  0  0  0  0
   -2.0579    0.7298    0.4857 H   0  0  0  0  0  0  0  0  0  0  0  0
    0.4366    0.6350    0.4642 H   0  0  0  0  0  0  0  0  0  0  0  0
    3.1378    1.1016    0.8311 H   0  0  0  0  0  0  0  0  0  0  0  0
  1  2  1  0
  2  3  2  0
  3  4  1  0
  4  5  2  0
  4  6  1  0
  6  7  2  0
  7  8  1  0
  7  9  1  0
  9 10  1  0
 10 11  1  0
 11 12  1  0
 12 13  1  0
 13 14  1  0
 14 15  2  0
 15 16  1  0
 16 17  2  0
 17 18  1  0
 18 19  2  0
 18 20  1  0
 20 21  1  0
 21 22  1  0
 22 23  1  0
 23 24  1  0
 24 25  2  0
 24 26  1  0
 21 27  1  0
 27 28  2  0
 27 29  1  0
 17 30  1  0
 30 31  2  0
 11 32  1  0
  8  2  1  0
 31 14  1  0
 32  6  1  0
  1 33  1  0
  1 34  1  0
  8 35  1  0
  9 36  1  0
 10 37  1  0
 10 38  1  0
 11 39  1  1
 12 40  1  0
 12 41  1  0
 13 42  1  0
 15 43  1  0
 16 44  1  0
 20 45  1  0
 21 46  1  1
 22 47  1  0
 22 48  1  0
 23 49  1  0
 23 50  1  0
 26 51  1  0
 29 52  1  0
 30 53  1  0
 31 54  1  0
 32 55  1  0
M  END
$$$$

     RDKit          3D

 55 57  0  0  0  0  0  0  0  0999 V2000
    7.1604    3.6934   -1.3851 N   0  0  0  0  0  0  0  0  0  0  0  0
    6.5877    2.4851   -0.9006 C   0  0  0  0  0  0  0  0  0  0  0  0
    7.2809    1.6266   -0.1386 N   0  0  0  0  0  0  0  0  0  0  0  0
    6.7919    0.4875    0.3376 C   0  0  0  0  0  0  0  0  0  0  0  0
    7.4612   -0.2955    1.0468 O   0  0  0  0  0  0  0  0  0  0  0  0
    5.4862    0.1485    0.0388 C   0  0  0  0  0  0  0  0  0  0  0  0
    4.7450    1.0051   -0.7402 C   0  0  0  0  0  0  0  0  0  0  0  0
    5.3194    2.1418   -1.1826 N   0  0  0  0  0  0  0  0  0  0  0  0
    3.4082    0.6584   -1.0449 N   0  0  0  0  0  0  0  0  0  0  0  0
    2.6787   -0.3837   -0.3069 C   0  0  0  0  0  0  0  0  0  0  0  0
    3.5942   -1.5157    0.0336 C   0  0  2  0  0  0  0  0  0  0  0  0
    2.9865   -2.5075    0.9665 C   0  0  0  0  0  0  0  0  0  0  0  0
    1.8115   -3.1639    0.5195 N   0  0  0  0  0  0  0  0  0  0  0  0
    0.5122   -2.6236    0.4536 C   0  0  0  0  0  0  0  0  0  0  0  0
   -0.4569   -3.1932   -0.3672 C   0  0  0  0  0  0  0  0  0  0  0  0
   -1.7360   -2.7149   -0.4334 C   0  0  0  0  0  0  0  0  0  0  0  0
   -2.1476   -1.6269    0.3178 C   0  0  0  0  0  0  0  0  0  0  0  0
   -3.5368   -1.1562    0.1954 C   0  0  0  0  0  0  0  0  0  0  0  0
   -4.2513   -1.6246   -0.7480 O   0  0  0  0  0  0  0  0  0  0  0  0
   -4.0158   -0.2065    1.1292 N   0  0  0  0  0  0  0  0  0  0  0  0
   -5.3979    0.2802    1.0377 C   0  0  1  0  0  0  0  0  0  0  0  0
   -5.5687    1.1659   -0.1498 C   0  0  0  0  0  0  0  0  0  0  0  0
   -4.6407    2.3855   -0.0633 C   0  0  0  0  0  0  0  0  0  0  0  0
   -4.8938    3.1823   -1.2821 C   0  0  0  0  0  0  0  0  0  0  0  0
   -4.4251    2.7999   -2.3764 O   0  0  0  0  0  0  0  0  0  0  0  0
   -5.6394    4.3399   -1.2247 O   0  0  0  0  0  0  0  0  0  0  0  0
   -6.3471   -0.8606    0.9848 C   0  0  0  0  0  0  0  0  0  0  0  0
   -6.0347   -2.0651    1.0465 O   0  0  0  0  0  0  0  0  0  0  0  0
   -7.6995   -0.5678    0.8557 O   0  0  0  0  0  0  0  0  0  0  0  0
   -1.2129   -1.0455    1.1364 C   0  0  0  0  0  0  0  0  0  0  0  0
    0.0944   -1.5454    1.1952 C   0  0  0  0  0  0  0  0  0  0  0  0
    4.8841   -1.0407    0.5005 N   0  0  0  0  0  0  0  0  0  0  0  0
    7.2239    4.5580   -0.7985 H   0  0  0  0  0  0  0  0  0  0  0  0
    7.5428    3.7593   -2.3583 H   0  0  0  0  0  0  0  0  0  0  0  0
    4.7339    2.7618   -1.7655 H   0  0  0  0  0  0  0  0  0  0  0  0
    2.9199    1.1446   -1.8037 H   0  0  0  0  0  0  0  0  0  0  0  0
    2.3320    0.1587    0.6143 H   0  0  0  0  0  0  0  0  0  0  0  0
    1.8260   -0.6758   -0.9229 H   0  0  0  0  0  0  0  0  0  0  0  0
    3.7882   -2.0540   -0.9468 H   0  0  0  0  0  0  0  0  0  0  0  0
    2.8209   -2.0723    1.9942 H   0  0  0  0  0  0  0  0  0  0  0  0
    3.7917   -3.2811    1.1627 H   0  0  0  0  0  0  0  0  0  0  0  0
    1.8934   -4.1784    0.1928 H   0  0  0  0  0  0  0  0  0  0  0  0
   -0.1592   -4.0516   -0.9695 H   0  0  0  0  0  0  0  0  0  0  0  0
   -2.4589   -3.1779   -1.0772 H   0  0  0  0  0  0  0  0  0  0  0  0
   -3.4091    0.1725    1.9053 H   0  0  0  0  0  0  0  0  0  0  0  0
   -5.6217    0.8147    1.9944 H   0  0  0  0  0  0  0  0  0  0  0  0
   -5.2640    0.6450   -1.0794 H   0  0  0  0  0  0  0  0  0  0  0  0
   -6.6113    1.4767   -0.2881 H   0  0  0  0  0  0  0  0  0  0  0  0
   -4.8433    2.9625    0.8599 H   0  0  0  0  0  0  0  0  0  0  0  0
   -3.5819    2.0630   -0.0233 H   0  0  0  0  0  0  0  0  0  0  0  0
   -6.0037    4.8051   -2.0595 H   0  0  0  0  0  0  0  0  0  0  0  0
   -8.3873   -1.2422    1.2104 H   0  0  0  0  0  0  0  0  0  0  0  0
   -1.4764   -0.1991    1.7384 H   0  0  0  0  0  0  0  0  0  0  0  0
    0.7645   -1.0423    1.8691 H   0  0  0  0  0  0  0  0  0  0  0  0
    5.3810   -1.6100    1.2091 H   0  0  0  0  0  0  0  0  0  0  0  0
  1  2  1  0
  2  3  2  0
  3  4  1  0
  4  5  2  0
  4  6  1  0
  6  7  2  0
  7  8  1  0
  7  9  1  0
  9 10  1  0
 10 11  1  0
 11 12  1  0
 12 13  1  0
 13 14  1  0
 14 15  2  0
 15 16  1  0
 16 17  2  0
 17 18  1  0
 18 19  2  0
 18 20  1  0
 20 21  1  0
 21 22  1  0
 22 23  1  0
 23 24  1  0
 24 25  2  0
 24 26  1  0
 21 27  1  0
 27 28  2  0
 27 29  1  0
 17 30  1  0
 30 31  2  0
 11 32  1  0
  8  2  1  0
 31 14  1  0
 32  6  1  0
  1 33  1  0
  1 34  1  0
  8 35  1  0
  9 36  1  0
 10 37  1  0
 10 38  1  0
 11 39  1  6
 12 40  1  0
 12 41  1  0
 13 42  1  0
 15 43  1  0
 16 44  1  0
 20 45  1  0
 21 46  1  1
 22 47  1  0
 22 48  1  0
 23 49  1  0
 23 50  1  0
 26 51  1  0
 29 52  1  0
 30 53  1  0
 31 54  1  0
 32 55  1  0
M  END
$$$$

     RDKit          3D

 55 57  0  0  0  0  0  0  0  0999 V2000
    6.6475   -1.6195    3.1814 N   0  0  0  0  0  0  0  0  0  0  0  0
    6.3744   -1.1351    1.8721 C   0  0  0  0  0  0  0  0  0  0  0  0
    6.8398   -1.7455    0.7697 N   0  0  0  0  0  0  0  0  0  0  0  0
    6.5698   -1.2709   -0.4554 C   0  0  0  0  0  0  0  0  0  0  0  0
    7.0087   -1.8461   -1.5018 O   0  0  0  0  0  0  0  0  0  0  0  0
    5.8083   -0.1423   -0.6596 C   0  0  0  0  0  0  0  0  0  0  0  0
    5.3337    0.4798    0.4739 C   0  0  0  0  0  0  0  0  0  0  0  0
    5.6205   -0.0186    1.6841 N   0  0  0  0  0  0  0  0  0  0  0  0
    4.5421    1.6506    0.3387 N   0  0  0  0  0  0  0  0  0  0  0  0
    4.4828    2.2988   -0.9532 C   0  0  0  0  0  0  0  0  0  0  0  0
    4.3537    1.2594   -2.0399 C   0  0  2  0  0  0  0  0  0  0  0  0
    3.1298    0.4225   -1.7048 C   0  0  0  0  0  0  0  0  0  0  0  0
    1.9307    1.2343   -1.6547 N   0  0  0  0  0  0  0  0  0  0  0  0
    0.7043    0.6089   -1.3560 C   0  0  0  0  0  0  0  0  0  0  0  0
    0.6481   -0.7453   -1.1195 C   0  0  0  0  0  0  0  0  0  0  0  0
   -0.5763   -1.3338   -0.8272 C   0  0  0  0  0  0  0  0  0  0  0  0
   -1.7422   -0.6128   -0.7642 C   0  0  0  0  0  0  0  0  0  0  0  0
   -2.9820   -1.2966   -0.4535 C   0  0  0  0  0  0  0  0  0  0  0  0
   -2.9741   -2.5417   -0.2504 O   0  0  0  0  0  0  0  0  0  0  0  0
   -4.2455   -0.6443   -0.3584 N   0  0  0  0  0  0  0  0  0  0  0  0
   -5.4678   -1.3690   -0.0438 C   0  0  1  0  0  0  0  0  0  0  0  0
   -5.9981   -0.8430    1.2695 C   0  0  0  0  0  0  0  0  0  0  0  0
   -6.3118    0.6204    1.2307 C   0  0  0  0  0  0  0  0  0  0  0  0
   -6.8210    1.0462    2.5452 C   0  0  0  0  0  0  0  0  0  0  0  0
   -6.9261    0.2062    3.4707 O   0  0  0  0  0  0  0  0  0  0  0  0
   -7.1796    2.3853    2.7385 O   0  0  0  0  0  0  0  0  0  0  0  0
   -6.4662   -1.2430   -1.1356 C   0  0  0  0  0  0  0  0  0  0  0  0
   -6.2693   -0.5947   -2.1845 O   0  0  0  0  0  0  0  0  0  0  0  0
   -7.6879   -1.8796   -0.9860 O   0  0  0  0  0  0  0  0  0  0  0  0
   -1.6514    0.7415   -1.0061 C   0  0  0  0  0  0  0  0  0  0  0  0
   -0.4473    1.3524   -1.2991 C   0  0  0  0  0  0  0  0  0  0  0  0
    5.5059    0.3821   -1.9630 N   0  0  0  0  0  0  0  0  0  0  0  0
    5.9579   -1.4269    3.9275 H   0  0  0  0  0  0  0  0  0  0  0  0
    7.5041   -2.1520    3.4074 H   0  0  0  0  0  0  0  0  0  0  0  0
    5.2687    0.4389    2.5675 H   0  0  0  0  0  0  0  0  0  0  0  0
    4.0047    2.0599    1.1324 H   0  0  0  0  0  0  0  0  0  0  0  0
    3.6699    3.0463   -0.9984 H   0  0  0  0  0  0  0  0  0  0  0  0
    5.4856    2.7847   -1.1026 H   0  0  0  0  0  0  0  0  0  0  0  0
    4.2279    1.7088   -3.0311 H   0  0  0  0  0  0  0  0  0  0  0  0
    2.9847   -0.3703   -2.4653 H   0  0  0  0  0  0  0  0  0  0  0  0
    3.2475   -0.0673   -0.7203 H   0  0  0  0  0  0  0  0  0  0  0  0
    1.9542    2.2471   -1.8306 H   0  0  0  0  0  0  0  0  0  0  0  0
    1.5754   -1.2984   -1.1730 H   0  0  0  0  0  0  0  0  0  0  0  0
   -0.5857   -2.3895   -0.6482 H   0  0  0  0  0  0  0  0  0  0  0  0
   -4.2600    0.3827   -0.5249 H   0  0  0  0  0  0  0  0  0  0  0  0
   -5.2713   -2.4500    0.0994 H   0  0  0  0  0  0  0  0  0  0  0  0
   -6.8691   -1.4365    1.6317 H   0  0  0  0  0  0  0  0  0  0  0  0
   -5.1885   -1.0457    2.0251 H   0  0  0  0  0  0  0  0  0  0  0  0
   -7.1011    0.7564    0.4344 H   0  0  0  0  0  0  0  0  0  0  0  0
   -5.4025    1.1856    0.9586 H   0  0  0  0  0  0  0  0  0  0  0  0
   -7.9169    2.5792    3.4278 H   0  0  0  0  0  0  0  0  0  0  0  0
   -8.2270   -2.2393   -1.7570 H   0  0  0  0  0  0  0  0  0  0  0  0
   -2.5395    1.3615   -0.9701 H   0  0  0  0  0  0  0  0  0  0  0  0
   -0.3855    2.4082   -1.4863 H   0  0  0  0  0  0  0  0  0  0  0  0
    6.1127    0.1102   -2.7538 H   0  0  0  0  0  0  0  0  0  0  0  0
  1  2  1  0
  2  3  2  0
  3  4  1  0
  4  5  2  0
  4  6  1  0
  6  7  2  0
  7  8  1  0
  7  9  1  0
  9 10  1  0
 10 11  1  0
 11 12  1  0
 12 13  1  0
 13 14  1  0
 14 15  2  0
 15 16  1  0
 16 17  2  0
 17 18  1  0
 18 19  2  0
 18 20  1  0
 20 21  1  0
 21 22  1  0
 22 23  1  0
 23 24  1  0
 24 25  2  0
 24 26  1  0
 21 27  1  0
 27 28  2  0
 27 29  1  0
 17 30  1  0
 30 31  2  0
 11 32  1  0
  8  2  1  0
 31 14  1  0
 32  6  1  0
  1 33  1  0
  1 34  1  0
  8 35  1  0
  9 36  1  0
 10 37  1  0
 10 38  1  0
 11 39  1  6
 12 40  1  0
 12 41  1  0
 13 42  1  0
 15 43  1  0
 16 44  1  0
 20 45  1  0
 21 46  1  1
 22 47  1  0
 22 48  1  0
 23 49  1  0
 23 50  1  0
 26 51  1  0
 29 52  1  0
 30 53  1  0
 31 54  1  0
 32 55  1  0
M  END
$$$$

     RDKit          3D

 55 57  0  0  0  0  0  0  0  0999 V2000
   -8.1333    0.3929   -2.6873 N   0  0  0  0  0  0  0  0  0  0  0  0
   -7.0462    0.3521   -1.7703 C   0  0  0  0  0  0  0  0  0  0  0  0
   -6.5675    1.4780   -1.2325 N   0  0  0  0  0  0  0  0  0  0  0  0
   -5.5596    1.5314   -0.3716 C   0  0  0  0  0  0  0  0  0  0  0  0
   -5.1064    2.5949    0.1372 O   0  0  0  0  0  0  0  0  0  0  0  0
   -4.9428    0.3530    0.0133 C   0  0  0  0  0  0  0  0  0  0  0  0
   -5.4260   -0.8061   -0.5321 C   0  0  0  0  0  0  0  0  0  0  0  0
   -6.4698   -0.8059   -1.4172 N   0  0  0  0  0  0  0  0  0  0  0  0
   -4.8128   -2.0353   -0.1559 N   0  0  0  0  0  0  0  0  0  0  0  0
   -4.1515   -2.1032    1.1369 C   0  0  0  0  0  0  0  0  0  0  0  0
   -3.2322   -0.9010    1.3252 C   0  0  2  0  0  0  0  0  0  0  0  0
   -2.8327   -0.7421    2.7656 C   0  0  0  0  0  0  0  0  0  0  0  0
   -1.9717    0.3842    2.9279 N   0  0  0  0  0  0  0  0  0  0  0  0
   -0.7000    0.4408    2.3244 C   0  0  0  0  0  0  0  0  0  0  0  0
   -0.4411    0.7177    1.0057 C   0  0  0  0  0  0  0  0  0  0  0  0
    0.8744    0.7291    0.5188 C   0  0  0  0  0  0  0  0  0  0  0  0
    1.9560    0.4688    1.3213 C   0  0  0  0  0  0  0  0  0  0  0  0
    3.3178    0.4743    0.8275 C   0  0  0  0  0  0  0  0  0  0  0  0
    4.2556    0.3713    1.6584 O   0  0  0  0  0  0  0  0  0  0  0  0
    3.6574    0.5888   -0.5382 N   0  0  0  0  0  0  0  0  0  0  0  0
    5.0490    0.5921   -1.0019 C   0  0  1  0  0  0  0  0  0  0  0  0
    5.2606   -0.6181   -1.8487 C   0  0  0  0  0  0  0  0  0  0  0  0
    6.6314   -0.7625   -2.4032 C   0  0  0  0  0  0  0  0  0  0  0  0
    7.7143   -0.8732   -1.4223 C   0  0  0  0  0  0  0  0  0  0  0  0
    8.8983   -0.9302   -1.8743 O   0  0  0  0  0  0  0  0  0  0  0  0
    7.4713   -0.9152   -0.0701 O   0  0  0  0  0  0  0  0  0  0  0  0
    5.3832    1.8656   -1.6665 C   0  0  0  0  0  0  0  0  0  0  0  0
    4.4880    2.7438   -1.7556 O   0  0  0  0  0  0  0  0  0  0  0  0
    6.6248    2.1521   -2.1982 O   0  0  0  0  0  0  0  0  0  0  0  0
    1.6729    0.1928    2.6466 C   0  0  0  0  0  0  0  0  0  0  0  0
    0.3943    0.1766    3.1417 C   0  0  0  0  0  0  0  0  0  0  0  0
   -3.8685    0.3176    0.9199 N   0  0  0  0  0  0  0  0  0  0  0  0
   -8.8571   -0.3542   -2.6441 H   0  0  0  0  0  0  0  0  0  0  0  0
   -8.2544    1.1357   -3.4126 H   0  0  0  0  0  0  0  0  0  0  0  0
   -6.8106   -1.7190   -1.8132 H   0  0  0  0  0  0  0  0  0  0  0  0
   -4.8522   -2.8539   -0.8129 H   0  0  0  0  0  0  0  0  0  0  0  0
   -3.5537   -3.0375    1.1368 H   0  0  0  0  0  0  0  0  0  0  0  0
   -4.8710   -2.1579    1.9544 H   0  0  0  0  0  0  0  0  0  0  0  0
   -2.3550   -1.0937    0.6921 H   0  0  0  0  0  0  0  0  0  0  0  0
   -3.7464   -0.5800    3.4155 H   0  0  0  0  0  0  0  0  0  0  0  0
   -2.3389   -1.6644    3.1636 H   0  0  0  0  0  0  0  0  0  0  0  0
   -2.3097    1.1957    3.5215 H   0  0  0  0  0  0  0  0  0  0  0  0
   -1.2592    0.9432    0.3301 H   0  0  0  0  0  0  0  0  0  0  0  0
    1.0257    0.9540   -0.5290 H   0  0  0  0  0  0  0  0  0  0  0  0
    2.8785    0.6715   -1.2243 H   0  0  0  0  0  0  0  0  0  0  0  0
    5.6658    0.5137   -0.0965 H   0  0  0  0  0  0  0  0  0  0  0  0
    5.1071   -1.5031   -1.1598 H   0  0  0  0  0  0  0  0  0  0  0  0
    4.4699   -0.7535   -2.6216 H   0  0  0  0  0  0  0  0  0  0  0  0
    6.6501   -1.7248   -2.9967 H   0  0  0  0  0  0  0  0  0  0  0  0
    6.9119    0.0315   -3.1255 H   0  0  0  0  0  0  0  0  0  0  0  0
    8.2058   -0.6521    0.5678 H   0  0  0  0  0  0  0  0  0  0  0  0
    6.6885    2.9125   -2.8653 H   0  0  0  0  0  0  0  0  0  0  0  0
    2.5057   -0.0170    3.3077 H   0  0  0  0  0  0  0  0  0  0  0  0
    0.2294   -0.0418    4.1710 H   0  0  0  0  0  0  0  0  0  0  0  0
   -3.5173    1.2163    1.3162 H   0  0  0  0  0  0  0  0  0  0  0  0
  1  2  1  0
  2  3  2  0
  3  4  1  0
  4  5  2  0
  4  6  1  0
  6  7  2  0
  7  8  1  0
  7  9  1  0
  9 10  1  0
 10 11  1  0
 11 12  1  0
 12 13  1  0
 13 14  1  0
 14 15  2  0
 15 16  1  0
 16 17  2  0
 17 18  1  0
 18 19  2  0
 18 20  1  0
 20 21  1  0
 21 22  1  0
 22 23  1  0
 23 24  1  0
 24 25  2  0
 24 26  1  0
 21 27  1  0
 27 28  2  0
 27 29  1  0
 17 30  1  0
 30 31  2  0
 11 32  1  0
  8  2  1  0
 31 14  1  0
 32  6  1  0
  1 33  1  0
  1 34  1  0
  8 35  1  0
  9 36  1  0
 10 37  1  0
 10 38  1  0
 11 39  1  6
 12 40  1  0
 12 41  1  0
 13 42  1  0
 15 43  1  0
 16 44  1  0
 20 45  1  0
 21 46  1  1
 22 47  1  0
 22 48  1  0
 23 49  1  0
 23 50  1  0
 26 51  1  0
 29 52  1  0
 30 53  1  0
 31 54  1  0
 32 55  1  0
M  END
$$$$

     RDKit          3D

 55 57  0  0  0  0  0  0  0  0999 V2000
    8.8153    1.6277   -1.9474 N   0  0  0  0  0  0  0  0  0  0  0  0
    7.6745    1.4150   -1.1455 C   0  0  0  0  0  0  0  0  0  0  0  0
    6.8452    2.4758   -0.9458 N   0  0  0  0  0  0  0  0  0  0  0  0
    5.7308    2.3709   -0.1948 C   0  0  0  0  0  0  0  0  0  0  0  0
    4.9519    3.3283    0.0051 O   0  0  0  0  0  0  0  0  0  0  0  0
    5.4496    1.1568    0.3691 C   0  0  0  0  0  0  0  0  0  0  0  0
    6.3048    0.0938    0.1533 C   0  0  0  0  0  0  0  0  0  0  0  0
    7.4186    0.2128   -0.6017 N   0  0  0  0  0  0  0  0  0  0  0  0
    5.9551   -1.1497    0.7706 N   0  0  0  0  0  0  0  0  0  0  0  0
    4.5674   -1.3800    1.0841 C   0  0  0  0  0  0  0  0  0  0  0  0
    3.9849   -0.2307    1.8495 C   0  0  2  0  0  0  0  0  0  0  0  0
    2.4919   -0.3331    1.9772 C   0  0  0  0  0  0  0  0  0  0  0  0
    1.8509   -0.3438    0.6889 N   0  0  0  0  0  0  0  0  0  0  0  0
    0.4426   -0.4443    0.5198 C   0  0  0  0  0  0  0  0  0  0  0  0
   -0.1561   -0.4532   -0.7174 C   0  0  0  0  0  0  0  0  0  0  0  0
   -1.5289   -0.5518   -0.8602 C   0  0  0  0  0  0  0  0  0  0  0  0
   -2.3751   -0.6464    0.2179 C   0  0  0  0  0  0  0  0  0  0  0  0
   -3.8192   -0.7525    0.1491 C   0  0  0  0  0  0  0  0  0  0  0  0
   -4.4887   -0.8360    1.2057 O   0  0  0  0  0  0  0  0  0  0  0  0
   -4.5041   -0.7649   -1.0861 N   0  0  0  0  0  0  0  0  0  0  0  0
   -5.9611   -0.8752   -1.0551 C   0  0  1  0  0  0  0  0  0  0  0  0
   -6.5970    0.2439   -1.8491 C   0  0  0  0  0  0  0  0  0  0  0  0
   -6.2621    1.6029   -1.3446 C   0  0  0  0  0  0  0  0  0  0  0  0
   -6.6734    1.8611    0.0352 C   0  0  0  0  0  0  0  0  0  0  0  0
   -6.4081    3.0013    0.5183 O   0  0  0  0  0  0  0  0  0  0  0  0
   -7.3273    0.9766    0.8677 O   0  0  0  0  0  0  0  0  0  0  0  0
   -6.2898   -2.1426   -1.7953 C   0  0  0  0  0  0  0  0  0  0  0  0
   -5.4177   -2.8860   -2.3008 O   0  0  0  0  0  0  0  0  0  0  0  0
   -7.6214   -2.5579   -1.9558 O   0  0  0  0  0  0  0  0  0  0  0  0
   -1.7556   -0.6364    1.4716 C   0  0  0  0  0  0  0  0  0  0  0  0
   -0.3899   -0.5386    1.6229 C   0  0  0  0  0  0  0  0  0  0  0  0
    4.2735    1.0249    1.1687 N   0  0  0  0  0  0  0  0  0  0  0  0
    9.5710    2.2681   -1.6023 H   0  0  0  0  0  0  0  0  0  0  0  0
    8.8971    1.1476   -2.8740 H   0  0  0  0  0  0  0  0  0  0  0  0
    8.0435   -0.6096   -0.7448 H   0  0  0  0  0  0  0  0  0  0  0  0
    6.7283   -1.8329    0.9641 H   0  0  0  0  0  0  0  0  0  0  0  0
    3.9659   -1.5723    0.1741 H   0  0  0  0  0  0  0  0  0  0  0  0
    4.4881   -2.2822    1.7266 H   0  0  0  0  0  0  0  0  0  0  0  0
    4.4260   -0.2222    2.8871 H   0  0  0  0  0  0  0  0  0  0  0  0
    2.1943   -1.2414    2.5796 H   0  0  0  0  0  0  0  0  0  0  0  0
    2.1030    0.5260    2.5672 H   0  0  0  0  0  0  0  0  0  0  0  0
    2.4458   -0.2732   -0.1597 H   0  0  0  0  0  0  0  0  0  0  0  0
    0.4648   -0.3813   -1.5939 H   0  0  0  0  0  0  0  0  0  0  0  0
   -1.9867   -0.5572   -1.8536 H   0  0  0  0  0  0  0  0  0  0  0  0
   -3.9879   -0.6975   -1.9952 H   0  0  0  0  0  0  0  0  0  0  0  0
   -6.3236   -0.9356   -0.0177 H   0  0  0  0  0  0  0  0  0  0  0  0
   -7.6709    0.1211   -1.9678 H   0  0  0  0  0  0  0  0  0  0  0  0
   -6.1566    0.1636   -2.8856 H   0  0  0  0  0  0  0  0  0  0  0  0
   -5.1882    1.8619   -1.4379 H   0  0  0  0  0  0  0  0  0  0  0  0
   -6.8004    2.3353   -1.9952 H   0  0  0  0  0  0  0  0  0  0  0  0
   -7.8032    1.2652    1.7089 H   0  0  0  0  0  0  0  0  0  0  0  0
   -7.8874   -3.5308   -1.8480 H   0  0  0  0  0  0  0  0  0  0  0  0
   -2.3556   -0.7077    2.3783 H   0  0  0  0  0  0  0  0  0  0  0  0
    0.0401   -0.5353    2.6156 H   0  0  0  0  0  0  0  0  0  0  0  0
    3.6114    1.8218    1.2740 H   0  0  0  0  0  0  0  0  0  0  0  0
  1  2  1  0
  2  3  2  0
  3  4  1  0
  4  5  2  0
  4  6  1  0
  6  7  2  0
  7  8  1  0
  7  9  1  0
  9 10  1  0
 10 11  1  0
 11 12  1  0
 12 13  1  0
 13 14  1  0
 14 15  2  0
 15 16  1  0
 16 17  2  0
 17 18  1  0
 18 19  2  0
 18 20  1  0
 20 21  1  0
 21 22  1  0
 22 23  1  0
 23 24  1  0
 24 25  2  0
 24 26  1  0
 21 27  1  0
 27 28  2  0
 27 29  1  0
 17 30  1  0
 30 31  2  0
 11 32  1  0
  8  2  1  0
 31 14  1  0
 32  6  1  0
  1 33  1  0
  1 34  1  0
  8 35  1  0
  9 36  1  0
 10 37  1  0
 10 38  1  0
 11 39  1  1
 12 40  1  0
 12 41  1  0
 13 42  1  0
 15 43  1  0
 16 44  1  0
 20 45  1  0
 21 46  1  1
 22 47  1  0
 22 48  1  0
 23 49  1  0
 23 50  1  0
 26 51  1  0
 29 52  1  0
 30 53  1  0
 31 54  1  0
 32 55  1  0
M  END
$$$$

     RDKit          3D

 55 57  0  0  0  0  0  0  0  0999 V2000
   -9.4485    1.4605    0.2238 N   0  0  0  0  0  0  0  0  0  0  0  0
   -8.0464    1.4214    0.4271 C   0  0  0  0  0  0  0  0  0  0  0  0
   -7.4700    1.9966    1.5058 N   0  0  0  0  0  0  0  0  0  0  0  0
   -6.1381    1.9512    1.6855 C   0  0  0  0  0  0  0  0  0  0  0  0
   -5.6433    2.4887    2.6848 O   0  0  0  0  0  0  0  0  0  0  0  0
   -5.3876    1.2994    0.7326 C   0  0  0  0  0  0  0  0  0  0  0  0
   -5.9561    0.7133   -0.3627 C   0  0  0  0  0  0  0  0  0  0  0  0
   -7.3037    0.7852   -0.5007 N   0  0  0  0  0  0  0  0  0  0  0  0
   -5.1591    0.0569   -1.3147 N   0  0  0  0  0  0  0  0  0  0  0  0
   -3.7305    0.0758   -1.2710 C   0  0  0  0  0  0  0  0  0  0  0  0
   -3.1636    0.2997    0.1200 C   0  0  2  0  0  0  0  0  0  0  0  0
   -3.1039   -1.0120    0.8563 C   0  0  0  0  0  0  0  0  0  0  0  0
   -2.2506   -1.9121    0.1202 N   0  0  0  0  0  0  0  0  0  0  0  0
   -0.8537   -1.6990   -0.0057 C   0  0  0  0  0  0  0  0  0  0  0  0
   -0.1180   -2.4273   -0.9499 C   0  0  0  0  0  0  0  0  0  0  0  0
    1.2424   -2.2397   -1.0686 C   0  0  0  0  0  0  0  0  0  0  0  0
    1.9290   -1.3455   -0.2807 C   0  0  0  0  0  0  0  0  0  0  0  0
    3.3580   -1.1847   -0.4484 C   0  0  0  0  0  0  0  0  0  0  0  0
    3.9702   -1.8343   -1.3431 O   0  0  0  0  0  0  0  0  0  0  0  0
    4.1489   -0.3193    0.3481 N   0  0  0  0  0  0  0  0  0  0  0  0
    5.5778   -0.1755    0.1593 C   0  0  1  0  0  0  0  0  0  0  0  0
    5.8169    1.2749   -0.1821 C   0  0  0  0  0  0  0  0  0  0  0  0
    7.2652    1.5918   -0.4127 C   0  0  0  0  0  0  0  0  0  0  0  0
    7.8626    0.8265   -1.5180 C   0  0  0  0  0  0  0  0  0  0  0  0
    7.5860    1.1474   -2.7079 O   0  0  0  0  0  0  0  0  0  0  0  0
    8.7278   -0.2472   -1.3599 O   0  0  0  0  0  0  0  0  0  0  0  0
    6.2496   -0.5631    1.4178 C   0  0  0  0  0  0  0  0  0  0  0  0
    5.5485   -0.9298    2.3915 O   0  0  0  0  0  0  0  0  0  0  0  0
    7.6279   -0.5450    1.5889 O   0  0  0  0  0  0  0  0  0  0  0  0
    1.2161   -0.6295    0.6453 C   0  0  0  0  0  0  0  0  0  0  0  0
   -0.1709   -0.8070    0.7815 C   0  0  0  0  0  0  0  0  0  0  0  0
   -3.9742    1.2235    0.8757 N   0  0  0  0  0  0  0  0  0  0  0  0
   -9.8396    2.0181   -0.5523 H   0  0  0  0  0  0  0  0  0  0  0  0
  -10.0879    0.9267    0.8571 H   0  0  0  0  0  0  0  0  0  0  0  0
   -7.6931    0.3252   -1.3492 H   0  0  0  0  0  0  0  0  0  0  0  0
   -5.6156   -0.4754   -2.0998 H   0  0  0  0  0  0  0  0  0  0  0  0
   -3.3256    0.7891   -1.9937 H   0  0  0  0  0  0  0  0  0  0  0  0
   -3.3759   -0.9502   -1.5730 H   0  0  0  0  0  0  0  0  0  0  0  0
   -2.1740    0.7295   -0.0081 H   0  0  0  0  0  0  0  0  0  0  0  0
   -4.1158   -1.4423    1.0240 H   0  0  0  0  0  0  0  0  0  0  0  0
   -2.6106   -0.8173    1.8503 H   0  0  0  0  0  0  0  0  0  0  0  0
   -2.7289   -2.7380   -0.3180 H   0  0  0  0  0  0  0  0  0  0  0  0
   -0.6579   -3.1379   -1.5772 H   0  0  0  0  0  0  0  0  0  0  0  0
    1.8097   -2.8071   -1.8031 H   0  0  0  0  0  0  0  0  0  0  0  0
    3.6952    0.2360    1.0974 H   0  0  0  0  0  0  0  0  0  0  0  0
    5.9478   -0.8181   -0.6711 H   0  0  0  0  0  0  0  0  0  0  0  0
    5.1934    1.5422   -1.0323 H   0  0  0  0  0  0  0  0  0  0  0  0
    5.5033    1.8630    0.7250 H   0  0  0  0  0  0  0  0  0  0  0  0
    7.2991    2.6812   -0.7051 H   0  0  0  0  0  0  0  0  0  0  0  0
    7.8252    1.5323    0.5361 H   0  0  0  0  0  0  0  0  0  0  0  0
    9.2747   -0.6344   -2.1350 H   0  0  0  0  0  0  0  0  0  0  0  0
    8.0065   -1.2623    2.2063 H   0  0  0  0  0  0  0  0  0  0  0  0
    1.6753    0.0830    1.2935 H   0  0  0  0  0  0  0  0  0  0  0  0
   -0.7082   -0.2419    1.5225 H   0  0  0  0  0  0  0  0  0  0  0  0
   -3.5058    1.8568    1.5493 H   0  0  0  0  0  0  0  0  0  0  0  0
  1  2  1  0
  2  3  2  0
  3  4  1  0
  4  5  2  0
  4  6  1  0
  6  7  2  0
  7  8  1  0
  7  9  1  0
  9 10  1  0
 10 11  1  0
 11 12  1  0
 12 13  1  0
 13 14  1  0
 14 15  2  0
 15 16  1  0
 16 17  2  0
 17 18  1  0
 18 19  2  0
 18 20  1  0
 20 21  1  0
 21 22  1  0
 22 23  1  0
 23 24  1  0
 24 25  2  0
 24 26  1  0
 21 27  1  0
 27 28  2  0
 27 29  1  0
 17 30  1  0
 30 31  2  0
 11 32  1  0
  8  2  1  0
 31 14  1  0
 32  6  1  0
  1 33  1  0
  1 34  1  0
  8 35  1  0
  9 36  1  0
 10 37  1  0
 10 38  1  0
 11 39  1  6
 12 40  1  0
 12 41  1  0
 13 42  1  0
 15 43  1  0
 16 44  1  0
 20 45  1  0
 21 46  1  6
 22 47  1  0
 22 48  1  0
 23 49  1  0
 23 50  1  0
 26 51  1  0
 29 52  1  0
 30 53  1  0
 31 54  1  0
 32 55  1  0
M  END
$$$$

     RDKit          3D

 55 57  0  0  0  0  0  0  0  0999 V2000
    3.7589    1.7674   -4.0294 N   0  0  0  0  0  0  0  0  0  0  0  0
    3.6065    1.2214   -2.7230 C   0  0  0  0  0  0  0  0  0  0  0  0
    2.4849    1.4438   -2.0335 N   0  0  0  0  0  0  0  0  0  0  0  0
    2.2705    0.9585   -0.7915 C   0  0  0  0  0  0  0  0  0  0  0  0
    1.2156    1.1782   -0.1633 O   0  0  0  0  0  0  0  0  0  0  0  0
    3.2511    0.2086   -0.2266 C   0  0  0  0  0  0  0  0  0  0  0  0
    4.4123   -0.0269   -0.9277 C   0  0  0  0  0  0  0  0  0  0  0  0
    4.5663    0.4885   -2.1707 N   0  0  0  0  0  0  0  0  0  0  0  0
    5.4154   -0.7996   -0.3225 N   0  0  0  0  0  0  0  0  0  0  0  0
    5.0824   -1.8394    0.6168 C   0  0  0  0  0  0  0  0  0  0  0  0
    3.9535   -1.4509    1.5427 C   0  0  2  0  0  0  0  0  0  0  0  0
    3.1389   -2.6687    1.8416 C   0  0  0  0  0  0  0  0  0  0  0  0
    2.0083   -2.4711    2.7058 N   0  0  0  0  0  0  0  0  0  0  0  0
    0.7762   -1.8953    2.2908 C   0  0  0  0  0  0  0  0  0  0  0  0
   -0.1500   -1.4836    3.2415 C   0  0  0  0  0  0  0  0  0  0  0  0
   -1.3796   -0.9470    2.9144 C   0  0  0  0  0  0  0  0  0  0  0  0
   -1.7347   -0.8000    1.5823 C   0  0  0  0  0  0  0  0  0  0  0  0
   -3.0421   -0.2264    1.2958 C   0  0  0  0  0  0  0  0  0  0  0  0
   -3.7775    0.2482    2.2134 O   0  0  0  0  0  0  0  0  0  0  0  0
   -3.5455   -0.1757   -0.0216 N   0  0  0  0  0  0  0  0  0  0  0  0
   -4.8311    0.3910   -0.2868 C   0  0  1  0  0  0  0  0  0  0  0  0
   -4.7759    1.5670   -1.2373 C   0  0  0  0  0  0  0  0  0  0  0  0
   -3.9085    2.6742   -0.6603 C   0  0  0  0  0  0  0  0  0  0  0  0
   -3.8286    3.8365   -1.5517 C   0  0  0  0  0  0  0  0  0  0  0  0
   -4.4090    3.9031   -2.6646 O   0  0  0  0  0  0  0  0  0  0  0  0
   -3.0724    4.9309   -1.1546 O   0  0  0  0  0  0  0  0  0  0  0  0
   -5.7195   -0.6655   -0.8090 C   0  0  0  0  0  0  0  0  0  0  0  0
   -5.2892   -1.8242   -0.9475 O   0  0  0  0  0  0  0  0  0  0  0  0
   -7.0285   -0.3906   -1.1498 O   0  0  0  0  0  0  0  0  0  0  0  0
   -0.8308   -1.2017    0.6334 C   0  0  0  0  0  0  0  0  0  0  0  0
    0.4079   -1.7421    0.9703 C   0  0  0  0  0  0  0  0  0  0  0  0
    3.1603   -0.3605    1.0696 N   0  0  0  0  0  0  0  0  0  0  0  0
    4.4437    2.5586   -4.2007 H   0  0  0  0  0  0  0  0  0  0  0  0
    3.2088    1.4074   -4.8334 H   0  0  0  0  0  0  0  0  0  0  0  0
    5.4588    0.2972   -2.6862 H   0  0  0  0  0  0  0  0  0  0  0  0
    6.4282   -0.5964   -0.5786 H   0  0  0  0  0  0  0  0  0  0  0  0
    5.9861   -2.0651    1.2406 H   0  0  0  0  0  0  0  0  0  0  0  0
    4.8218   -2.7646    0.0316 H   0  0  0  0  0  0  0  0  0  0  0  0
    4.4392   -1.1646    2.5308 H   0  0  0  0  0  0  0  0  0  0  0  0
    2.7454   -3.1146    0.8788 H   0  0  0  0  0  0  0  0  0  0  0  0
    3.7710   -3.4798    2.3002 H   0  0  0  0  0  0  0  0  0  0  0  0
    2.0637   -2.7668    3.7349 H   0  0  0  0  0  0  0  0  0  0  0  0
    0.1160   -1.5930    4.2965 H   0  0  0  0  0  0  0  0  0  0  0  0
   -2.0738   -0.6391    3.6818 H   0  0  0  0  0  0  0  0  0  0  0  0
   -2.9973   -0.5506   -0.8537 H   0  0  0  0  0  0  0  0  0  0  0  0
   -5.2634    0.7841    0.6712 H   0  0  0  0  0  0  0  0  0  0  0  0
   -4.5025    1.3086   -2.2576 H   0  0  0  0  0  0  0  0  0  0  0  0
   -5.8192    1.9847   -1.2712 H   0  0  0  0  0  0  0  0  0  0  0  0
   -2.9020    2.2057   -0.4833 H   0  0  0  0  0  0  0  0  0  0  0  0
   -4.2802    3.0004    0.3315 H   0  0  0  0  0  0  0  0  0  0  0  0
   -2.5554    5.5052   -1.8266 H   0  0  0  0  0  0  0  0  0  0  0  0
   -7.7501   -1.0976   -1.1054 H   0  0  0  0  0  0  0  0  0  0  0  0
   -1.0971   -1.0914   -0.4060 H   0  0  0  0  0  0  0  0  0  0  0  0
    1.1201   -2.0601    0.2223 H   0  0  0  0  0  0  0  0  0  0  0  0
    2.4521    0.0841    1.7153 H   0  0  0  0  0  0  0  0  0  0  0  0
  1  2  1  0
  2  3  2  0
  3  4  1  0
  4  5  2  0
  4  6  1  0
  6  7  2  0
  7  8  1  0
  7  9  1  0
  9 10  1  0
 10 11  1  0
 11 12  1  0
 12 13  1  0
 13 14  1  0
 14 15  2  0
 15 16  1  0
 16 17  2  0
 17 18  1  0
 18 19  2  0
 18 20  1  0
 20 21  1  0
 21 22  1  0
 22 23  1  0
 23 24  1  0
 24 25  2  0
 24 26  1  0
 21 27  1  0
 27 28  2  0
 27 29  1  0
 17 30  1  0
 30 31  2  0
 11 32  1  0
  8  2  1  0
 31 14  1  0
 32  6  1  0
  1 33  1  0
  1 34  1  0
  8 35  1  0
  9 36  1  0
 10 37  1  0
 10 38  1  0
 11 39  1  1
 12 40  1  0
 12 41  1  0
 13 42  1  0
 15 43  1  0
 16 44  1  0
 20 45  1  0
 21 46  1  1
 22 47  1  0
 22 48  1  0
 23 49  1  0
 23 50  1  0
 26 51  1  0
 29 52  1  0
 30 53  1  0
 31 54  1  0
 32 55  1  0
M  END
$$$$

     RDKit          3D

 55 57  0  0  0  0  0  0  0  0999 V2000
   -9.7737   -1.8434   -0.0117 N   0  0  0  0  0  0  0  0  0  0  0  0
   -8.3934   -1.4987    0.0511 C   0  0  0  0  0  0  0  0  0  0  0  0
   -7.4243   -2.4434    0.0809 N   0  0  0  0  0  0  0  0  0  0  0  0
   -6.1212   -2.0937    0.1402 C   0  0  0  0  0  0  0  0  0  0  0  0
   -5.2106   -2.9696    0.1684 O   0  0  0  0  0  0  0  0  0  0  0  0
   -5.7162   -0.7758    0.1731 C   0  0  0  0  0  0  0  0  0  0  0  0
   -6.7198    0.1751    0.1419 C   0  0  0  0  0  0  0  0  0  0  0  0
   -8.0175   -0.2064    0.0824 N   0  0  0  0  0  0  0  0  0  0  0  0
   -6.3409    1.5477    0.1746 N   0  0  0  0  0  0  0  0  0  0  0  0
   -4.9796    1.9996    0.0775 C   0  0  0  0  0  0  0  0  0  0  0  0
   -3.9926    1.0015    0.6074 C   0  0  2  0  0  0  0  0  0  0  0  0
   -2.6024    1.3105    0.0942 C   0  0  0  0  0  0  0  0  0  0  0  0
   -1.6436    0.3489    0.6022 N   0  0  0  0  0  0  0  0  0  0  0  0
   -0.2827    0.4953    0.2160 C   0  0  0  0  0  0  0  0  0  0  0  0
    0.1345    1.5154   -0.6105 C   0  0  0  0  0  0  0  0  0  0  0  0
    1.4499    1.6629   -0.9878 C   0  0  0  0  0  0  0  0  0  0  0  0
    2.4356    0.7781   -0.5479 C   0  0  0  0  0  0  0  0  0  0  0  0
    3.7986    0.9945   -0.9835 C   0  0  0  0  0  0  0  0  0  0  0  0
    4.0724    1.9663   -1.7155 O   0  0  0  0  0  0  0  0  0  0  0  0
    4.8176    0.1245   -0.5928 N   0  0  0  0  0  0  0  0  0  0  0  0
    6.1834    0.3277   -1.0190 C   0  0  1  0  0  0  0  0  0  0  0  0
    6.9713    0.7087    0.1860 C   0  0  0  0  0  0  0  0  0  0  0  0
    6.9971   -0.2011    1.3363 C   0  0  0  0  0  0  0  0  0  0  0  0
    7.5315   -1.5362    1.2203 C   0  0  0  0  0  0  0  0  0  0  0  0
    8.0470   -2.0579    0.2394 O   0  0  0  0  0  0  0  0  0  0  0  0
    7.4529   -2.3475    2.3804 O   0  0  0  0  0  0  0  0  0  0  0  0
    6.6499   -0.7903   -1.8141 C   0  0  0  0  0  0  0  0  0  0  0  0
    5.9385   -1.8069   -1.9812 O   0  0  0  0  0  0  0  0  0  0  0  0
    7.8992   -0.7606   -2.4168 O   0  0  0  0  0  0  0  0  0  0  0  0
    2.0313   -0.2449    0.2780 C   0  0  0  0  0  0  0  0  0  0  0  0
    0.6939   -0.3746    0.6469 C   0  0  0  0  0  0  0  0  0  0  0  0
   -4.3753   -0.3494    0.2347 N   0  0  0  0  0  0  0  0  0  0  0  0
  -10.3276   -1.9565    0.8627 H   0  0  0  0  0  0  0  0  0  0  0  0
  -10.2729   -1.9928   -0.9136 H   0  0  0  0  0  0  0  0  0  0  0  0
   -8.7542    0.5571    0.0602 H   0  0  0  0  0  0  0  0  0  0  0  0
   -7.1188    2.2383    0.2756 H   0  0  0  0  0  0  0  0  0  0  0  0
   -4.6810    2.2261   -0.9736 H   0  0  0  0  0  0  0  0  0  0  0  0
   -4.8754    2.9352    0.6921 H   0  0  0  0  0  0  0  0  0  0  0  0
   -4.0234    1.0517    1.7022 H   0  0  0  0  0  0  0  0  0  0  0  0
   -2.5595    1.3399   -1.0029 H   0  0  0  0  0  0  0  0  0  0  0  0
   -2.3483    2.3496    0.4459 H   0  0  0  0  0  0  0  0  0  0  0  0
   -1.9311   -0.4308    1.2322 H   0  0  0  0  0  0  0  0  0  0  0  0
   -0.5978    2.2172   -0.9697 H   0  0  0  0  0  0  0  0  0  0  0  0
    1.7514    2.4863   -1.6478 H   0  0  0  0  0  0  0  0  0  0  0  0
    4.6321   -0.6939    0.0134 H   0  0  0  0  0  0  0  0  0  0  0  0
    6.1434    1.2812   -1.6628 H   0  0  0  0  0  0  0  0  0  0  0  0
    6.6407    1.7228    0.5736 H   0  0  0  0  0  0  0  0  0  0  0  0
    8.0452    0.9047   -0.1204 H   0  0  0  0  0  0  0  0  0  0  0  0
    7.5700    0.3276    2.1713 H   0  0  0  0  0  0  0  0  0  0  0  0
    5.9501   -0.2380    1.7598 H   0  0  0  0  0  0  0  0  0  0  0  0
    7.5725   -3.3474    2.2810 H   0  0  0  0  0  0  0  0  0  0  0  0
    8.1667   -1.3758   -3.1745 H   0  0  0  0  0  0  0  0  0  0  0  0
    2.7575   -0.9576    0.6465 H   0  0  0  0  0  0  0  0  0  0  0  0
    0.3900   -1.1935    1.3040 H   0  0  0  0  0  0  0  0  0  0  0  0
   -3.6404   -1.0674   -0.0065 H   0  0  0  0  0  0  0  0  0  0  0  0
  1  2  1  0
  2  3  2  0
  3  4  1  0
  4  5  2  0
  4  6  1  0
  6  7  2  0
  7  8  1  0
  7  9  1  0
  9 10  1  0
 10 11  1  0
 11 12  1  0
 12 13  1  0
 13 14  1  0
 14 15  2  0
 15 16  1  0
 16 17  2  0
 17 18  1  0
 18 19  2  0
 18 20  1  0
 20 21  1  0
 21 22  1  0
 22 23  1  0
 23 24  1  0
 24 25  2  0
 24 26  1  0
 21 27  1  0
 27 28  2  0
 27 29  1  0
 17 30  1  0
 30 31  2  0
 11 32  1  0
  8  2  1  0
 31 14  1  0
 32  6  1  0
  1 33  1  0
  1 34  1  0
  8 35  1  0
  9 36  1  0
 10 37  1  0
 10 38  1  0
 11 39  1  1
 12 40  1  0
 12 41  1  0
 13 42  1  0
 15 43  1  0
 16 44  1  0
 20 45  1  0
 21 46  1  6
 22 47  1  0
 22 48  1  0
 23 49  1  0
 23 50  1  0
 26 51  1  0
 29 52  1  0
 30 53  1  0
 31 54  1  0
 32 55  1  0
M  END
$$$$

     RDKit          3D

 55 57  0  0  0  0  0  0  0  0999 V2000
   -9.1161    1.8618    1.3380 N   0  0  0  0  0  0  0  0  0  0  0  0
   -7.9991    1.2759    0.6677 C   0  0  0  0  0  0  0  0  0  0  0  0
   -7.5404    1.8192   -0.4715 N   0  0  0  0  0  0  0  0  0  0  0  0
   -6.4942    1.2994   -1.1307 C   0  0  0  0  0  0  0  0  0  0  0  0
   -6.0506    1.7894   -2.1931 O   0  0  0  0  0  0  0  0  0  0  0  0
   -5.8850    0.1869   -0.6222 C   0  0  0  0  0  0  0  0  0  0  0  0
   -6.3384   -0.3855    0.5428 C   0  0  0  0  0  0  0  0  0  0  0  0
   -7.4025    0.1822    1.1704 N   0  0  0  0  0  0  0  0  0  0  0  0
   -5.6922   -1.5305    1.0440 N   0  0  0  0  0  0  0  0  0  0  0  0
   -4.5173   -2.1257    0.4885 C   0  0  0  0  0  0  0  0  0  0  0  0
   -4.1691   -1.6609   -0.8791 C   0  0  2  0  0  0  0  0  0  0  0  0
   -2.6705   -1.5030   -1.0191 C   0  0  0  0  0  0  0  0  0  0  0  0
   -2.1964   -0.5394   -0.0676 N   0  0  0  0  0  0  0  0  0  0  0  0
   -0.8185   -0.2238   -0.0111 C   0  0  0  0  0  0  0  0  0  0  0  0
   -0.3353    0.7210    0.8924 C   0  0  0  0  0  0  0  0  0  0  0  0
    0.9984    1.0526    0.9751 C   0  0  0  0  0  0  0  0  0  0  0  0
    1.9349    0.4482    0.1464 C   0  0  0  0  0  0  0  0  0  0  0  0
    3.3555    0.8111    0.2389 C   0  0  0  0  0  0  0  0  0  0  0  0
    3.7189    1.7484    1.0027 O   0  0  0  0  0  0  0  0  0  0  0  0
    4.3205    0.1370   -0.5048 N   0  0  0  0  0  0  0  0  0  0  0  0
    5.7363    0.5668   -0.3544 C   0  0  1  0  0  0  0  0  0  0  0  0
    6.4746   -0.6476    0.1094 C   0  0  0  0  0  0  0  0  0  0  0  0
    7.9287   -0.3889    0.3194 C   0  0  0  0  0  0  0  0  0  0  0  0
    8.2164    0.6414    1.3359 C   0  0  0  0  0  0  0  0  0  0  0  0
    7.3243    1.2017    1.9968 O   0  0  0  0  0  0  0  0  0  0  0  0
    9.5420    0.9856    1.5486 O   0  0  0  0  0  0  0  0  0  0  0  0
    6.2162    0.9761   -1.7137 C   0  0  0  0  0  0  0  0  0  0  0  0
    5.4718    0.8666   -2.7297 O   0  0  0  0  0  0  0  0  0  0  0  0
    7.4886    1.4792   -1.8381 O   0  0  0  0  0  0  0  0  0  0  0  0
    1.4661   -0.4836   -0.7462 C   0  0  0  0  0  0  0  0  0  0  0  0
    0.1192   -0.8178   -0.8289 C   0  0  0  0  0  0  0  0  0  0  0  0
   -4.7720   -0.4213   -1.2632 N   0  0  0  0  0  0  0  0  0  0  0  0
   -9.8029    1.2256    1.7710 H   0  0  0  0  0  0  0  0  0  0  0  0
   -9.2672    2.8875    1.4089 H   0  0  0  0  0  0  0  0  0  0  0  0
   -7.7427   -0.2536    2.0514 H   0  0  0  0  0  0  0  0  0  0  0  0
   -6.1082   -1.9803    1.8923 H   0  0  0  0  0  0  0  0  0  0  0  0
   -3.6779   -1.9412    1.1970 H   0  0  0  0  0  0  0  0  0  0  0  0
   -4.6780   -3.2433    0.5014 H   0  0  0  0  0  0  0  0  0  0  0  0
   -4.4852   -2.4283   -1.6190 H   0  0  0  0  0  0  0  0  0  0  0  0
   -2.4287   -1.1044   -2.0465 H   0  0  0  0  0  0  0  0  0  0  0  0
   -2.1423   -2.4821   -0.9649 H   0  0  0  0  0  0  0  0  0  0  0  0
   -2.8503   -0.0736    0.5761 H   0  0  0  0  0  0  0  0  0  0  0  0
   -1.0757    1.1811    1.5285 H   0  0  0  0  0  0  0  0  0  0  0  0
    1.3678    1.7804    1.6715 H   0  0  0  0  0  0  0  0  0  0  0  0
    4.1515   -0.6344   -1.1514 H   0  0  0  0  0  0  0  0  0  0  0  0
    5.7896    1.3933    0.3463 H   0  0  0  0  0  0  0  0  0  0  0  0
    6.3245   -1.4725   -0.6363 H   0  0  0  0  0  0  0  0  0  0  0  0
    5.9766   -1.0056    1.0495 H   0  0  0  0  0  0  0  0  0  0  0  0
    8.4105   -1.3508    0.7063 H   0  0  0  0  0  0  0  0  0  0  0  0
    8.4678   -0.1225   -0.6078 H   0  0  0  0  0  0  0  0  0  0  0  0
    9.8466    1.4106    2.4059 H   0  0  0  0  0  0  0  0  0  0  0  0
    8.0068    1.3265   -2.6970 H   0  0  0  0  0  0  0  0  0  0  0  0
    2.1872   -0.9723   -1.4099 H   0  0  0  0  0  0  0  0  0  0  0  0
   -0.2152   -1.5503   -1.5377 H   0  0  0  0  0  0  0  0  0  0  0  0
   -4.3694    0.0876   -2.0807 H   0  0  0  0  0  0  0  0  0  0  0  0
  1  2  1  0
  2  3  2  0
  3  4  1  0
  4  5  2  0
  4  6  1  0
  6  7  2  0
  7  8  1  0
  7  9  1  0
  9 10  1  0
 10 11  1  0
 11 12  1  0
 12 13  1  0
 13 14  1  0
 14 15  2  0
 15 16  1  0
 16 17  2  0
 17 18  1  0
 18 19  2  0
 18 20  1  0
 20 21  1  0
 21 22  1  0
 22 23  1  0
 23 24  1  0
 24 25  2  0
 24 26  1  0
 21 27  1  0
 27 28  2  0
 27 29  1  0
 17 30  1  0
 30 31  2  0
 11 32  1  0
  8  2  1  0
 31 14  1  0
 32  6  1  0
  1 33  1  0
  1 34  1  0
  8 35  1  0
  9 36  1  0
 10 37  1  0
 10 38  1  0
 11 39  1  6
 12 40  1  0
 12 41  1  0
 13 42  1  0
 15 43  1  0
 16 44  1  0
 20 45  1  0
 21 46  1  1
 22 47  1  0
 22 48  1  0
 23 49  1  0
 23 50  1  0
 26 51  1  0
 29 52  1  0
 30 53  1  0
 31 54  1  0
 32 55  1  0
M  END
$$$$

     RDKit          3D

 55 57  0  0  0  0  0  0  0  0999 V2000
   -9.9561    1.5474   -0.0685 N   0  0  0  0  0  0  0  0  0  0  0  0
   -8.5770    1.2027    0.0229 C   0  0  0  0  0  0  0  0  0  0  0  0
   -7.6768    2.1980   -0.1026 N   0  0  0  0  0  0  0  0  0  0  0  0
   -6.3592    1.9700   -0.0308 C   0  0  0  0  0  0  0  0  0  0  0  0
   -5.4867    2.8515   -0.1399 O   0  0  0  0  0  0  0  0  0  0  0  0
   -5.9358    0.6757    0.1775 C   0  0  0  0  0  0  0  0  0  0  0  0
   -6.8646   -0.3334    0.3045 C   0  0  0  0  0  0  0  0  0  0  0  0
   -8.2034   -0.0696    0.2266 N   0  0  0  0  0  0  0  0  0  0  0  0
   -6.4572   -1.6865    0.5195 N   0  0  0  0  0  0  0  0  0  0  0  0
   -5.1224   -1.9450    0.9756 C   0  0  0  0  0  0  0  0  0  0  0  0
   -4.1917   -1.0523    0.1765 C   0  0  2  0  0  0  0  0  0  0  0  0
   -2.7554   -1.2281    0.5897 C   0  0  0  0  0  0  0  0  0  0  0  0
   -1.9239   -0.3683   -0.1883 N   0  0  0  0  0  0  0  0  0  0  0  0
   -0.4931   -0.3349   -0.0098 C   0  0  0  0  0  0  0  0  0  0  0  0
    0.1469   -1.1242    0.9053 C   0  0  0  0  0  0  0  0  0  0  0  0
    1.5256   -1.0589    1.0425 C   0  0  0  0  0  0  0  0  0  0  0  0
    2.3095   -0.2099    0.2772 C   0  0  0  0  0  0  0  0  0  0  0  0
    3.7623   -0.1727    0.4537 C   0  0  0  0  0  0  0  0  0  0  0  0
    4.2808   -0.8973    1.3362 O   0  0  0  0  0  0  0  0  0  0  0  0
    4.6142    0.6438   -0.3257 N   0  0  0  0  0  0  0  0  0  0  0  0
    6.0673    0.6229   -0.0850 C   0  0  1  0  0  0  0  0  0  0  0  0
    6.6925    0.1877   -1.3944 C   0  0  0  0  0  0  0  0  0  0  0  0
    8.1790    0.0939   -1.3659 C   0  0  0  0  0  0  0  0  0  0  0  0
    8.6997   -0.8633   -0.3815 C   0  0  0  0  0  0  0  0  0  0  0  0
    8.7818   -0.6184    0.8501 O   0  0  0  0  0  0  0  0  0  0  0  0
    9.1523   -2.1447   -0.7514 O   0  0  0  0  0  0  0  0  0  0  0  0
    6.5020    1.9731    0.3167 C   0  0  0  0  0  0  0  0  0  0  0  0
    5.6326    2.8865    0.3904 O   0  0  0  0  0  0  0  0  0  0  0  0
    7.8106    2.3062    0.6203 O   0  0  0  0  0  0  0  0  0  0  0  0
    1.6565    0.5824   -0.6428 C   0  0  0  0  0  0  0  0  0  0  0  0
    0.2646    0.5172   -0.7820 C   0  0  0  0  0  0  0  0  0  0  0  0
   -4.5601    0.3307    0.2677 N   0  0  0  0  0  0  0  0  0  0  0  0
  -10.6220    1.0513    0.5371 H   0  0  0  0  0  0  0  0  0  0  0  0
  -10.2352    2.2886   -0.7461 H   0  0  0  0  0  0  0  0  0  0  0  0
   -8.9113   -0.8514    0.3258 H   0  0  0  0  0  0  0  0  0  0  0  0
   -7.1678   -2.4318    0.3295 H   0  0  0  0  0  0  0  0  0  0  0  0
   -5.0110   -1.7564    2.0742 H   0  0  0  0  0  0  0  0  0  0  0  0
   -4.7907   -2.9884    0.8080 H   0  0  0  0  0  0  0  0  0  0  0  0
   -4.2985   -1.3806   -0.8922 H   0  0  0  0  0  0  0  0  0  0  0  0
   -2.7064   -0.9257    1.6774 H   0  0  0  0  0  0  0  0  0  0  0  0
   -2.4371   -2.2882    0.5803 H   0  0  0  0  0  0  0  0  0  0  0  0
   -2.3596    0.2501   -0.9024 H   0  0  0  0  0  0  0  0  0  0  0  0
   -0.4320   -1.7995    1.5206 H   0  0  0  0  0  0  0  0  0  0  0  0
    2.0523   -1.6827    1.7694 H   0  0  0  0  0  0  0  0  0  0  0  0
    4.2223    1.2626   -1.0714 H   0  0  0  0  0  0  0  0  0  0  0  0
    6.2822   -0.0713    0.7320 H   0  0  0  0  0  0  0  0  0  0  0  0
    6.4348    1.0096   -2.1261 H   0  0  0  0  0  0  0  0  0  0  0  0
    6.1921   -0.7159   -1.7892 H   0  0  0  0  0  0  0  0  0  0  0  0
    8.4826   -0.3028   -2.3810 H   0  0  0  0  0  0  0  0  0  0  0  0
    8.6093    1.0918   -1.1981 H   0  0  0  0  0  0  0  0  0  0  0  0
    8.9155   -2.9501   -0.1539 H   0  0  0  0  0  0  0  0  0  0  0  0
    8.1867    3.1975    0.2609 H   0  0  0  0  0  0  0  0  0  0  0  0
    2.2092    1.2709   -1.2742 H   0  0  0  0  0  0  0  0  0  0  0  0
   -0.2606    1.1426   -1.5090 H   0  0  0  0  0  0  0  0  0  0  0  0
   -3.8693    1.0978    0.3970 H   0  0  0  0  0  0  0  0  0  0  0  0
  1  2  1  0
  2  3  2  0
  3  4  1  0
  4  5  2  0
  4  6  1  0
  6  7  2  0
  7  8  1  0
  7  9  1  0
  9 10  1  0
 10 11  1  0
 11 12  1  0
 12 13  1  0
 13 14  1  0
 14 15  2  0
 15 16  1  0
 16 17  2  0
 17 18  1  0
 18 19  2  0
 18 20  1  0
 20 21  1  0
 21 22  1  0
 22 23  1  0
 23 24  1  0
 24 25  2  0
 24 26  1  0
 21 27  1  0
 27 28  2  0
 27 29  1  0
 17 30  1  0
 30 31  2  0
 11 32  1  0
  8  2  1  0
 31 14  1  0
 32  6  1  0
  1 33  1  0
  1 34  1  0
  8 35  1  0
  9 36  1  0
 10 37  1  0
 10 38  1  0
 11 39  1  6
 12 40  1  0
 12 41  1  0
 13 42  1  0
 15 43  1  0
 16 44  1  0
 20 45  1  0
 21 46  1  1
 22 47  1  0
 22 48  1  0
 23 49  1  0
 23 50  1  0
 26 51  1  0
 29 52  1  0
 30 53  1  0
 31 54  1  0
 32 55  1  0
M  END
$$$$

     RDKit          3D

 55 57  0  0  0  0  0  0  0  0999 V2000
   -6.2526    3.3769    2.1914 N   0  0  0  0  0  0  0  0  0  0  0  0
   -5.6321    2.1323    1.8537 C   0  0  0  0  0  0  0  0  0  0  0  0
   -4.8401    1.5347    2.7559 N   0  0  0  0  0  0  0  0  0  0  0  0
   -4.2462    0.3652    2.4649 C   0  0  0  0  0  0  0  0  0  0  0  0
   -3.4882   -0.2496    3.2706 O   0  0  0  0  0  0  0  0  0  0  0  0
   -4.4652   -0.2093    1.2228 C   0  0  0  0  0  0  0  0  0  0  0  0
   -5.2781    0.3963    0.2861 C   0  0  0  0  0  0  0  0  0  0  0  0
   -5.8490    1.5704    0.6330 N   0  0  0  0  0  0  0  0  0  0  0  0
   -5.4900   -0.2093   -0.9836 N   0  0  0  0  0  0  0  0  0  0  0  0
   -4.9397   -1.5157   -1.3225 C   0  0  0  0  0  0  0  0  0  0  0  0
   -3.6357   -1.6818   -0.5623 C   0  0  2  0  0  0  0  0  0  0  0  0
   -3.0811   -3.0629   -0.6873 C   0  0  0  0  0  0  0  0  0  0  0  0
   -1.8487   -3.1527    0.0519 N   0  0  0  0  0  0  0  0  0  0  0  0
   -0.6863   -2.4672   -0.3570 C   0  0  0  0  0  0  0  0  0  0  0  0
    0.3849   -2.3359    0.4962 C   0  0  0  0  0  0  0  0  0  0  0  0
    1.5597   -1.6773    0.1199 C   0  0  0  0  0  0  0  0  0  0  0  0
    1.6521   -1.1435   -1.1391 C   0  0  0  0  0  0  0  0  0  0  0  0
    2.8397   -0.4504   -1.5893 C   0  0  0  0  0  0  0  0  0  0  0  0
    2.8748    0.0742   -2.7526 O   0  0  0  0  0  0  0  0  0  0  0  0
    4.0175   -0.2960   -0.8198 N   0  0  0  0  0  0  0  0  0  0  0  0
    5.1851    0.4174   -1.3345 C   0  0  1  0  0  0  0  0  0  0  0  0
    5.3627    1.6724   -0.5223 C   0  0  0  0  0  0  0  0  0  0  0  0
    5.5767    1.3180    0.9108 C   0  0  0  0  0  0  0  0  0  0  0  0
    5.7708    2.5538    1.7570 C   0  0  0  0  0  0  0  0  0  0  0  0
    5.7389    3.7103    1.2664 O   0  0  0  0  0  0  0  0  0  0  0  0
    5.9897    2.3939    3.1108 O   0  0  0  0  0  0  0  0  0  0  0  0
    6.3522   -0.4655   -1.2708 C   0  0  0  0  0  0  0  0  0  0  0  0
    6.2346   -1.6275   -0.8240 O   0  0  0  0  0  0  0  0  0  0  0  0
    7.6156   -0.0605   -1.6945 O   0  0  0  0  0  0  0  0  0  0  0  0
    0.5909   -1.2652   -2.0067 C   0  0  0  0  0  0  0  0  0  0  0  0
   -0.5762   -1.9282   -1.6116 C   0  0  0  0  0  0  0  0  0  0  0  0
   -3.8601   -1.4428    0.8715 N   0  0  0  0  0  0  0  0  0  0  0  0
   -7.3003    3.3537    2.2328 H   0  0  0  0  0  0  0  0  0  0  0  0
   -5.6545    4.1880    2.3662 H   0  0  0  0  0  0  0  0  0  0  0  0
   -6.4620    2.0555   -0.0344 H   0  0  0  0  0  0  0  0  0  0  0  0
   -6.0566    0.2835   -1.7121 H   0  0  0  0  0  0  0  0  0  0  0  0
   -4.7058   -1.5419   -2.4039 H   0  0  0  0  0  0  0  0  0  0  0  0
   -5.6476   -2.3304   -1.1175 H   0  0  0  0  0  0  0  0  0  0  0  0
   -2.9040   -0.9490   -0.9395 H   0  0  0  0  0  0  0  0  0  0  0  0
   -2.9395   -3.3449   -1.7535 H   0  0  0  0  0  0  0  0  0  0  0  0
   -3.7794   -3.8332   -0.2592 H   0  0  0  0  0  0  0  0  0  0  0  0
   -1.7888   -3.7452    0.9318 H   0  0  0  0  0  0  0  0  0  0  0  0
    0.2891   -2.7602    1.4719 H   0  0  0  0  0  0  0  0  0  0  0  0
    2.3823   -1.5868    0.8022 H   0  0  0  0  0  0  0  0  0  0  0  0
    4.0519   -0.7056    0.1319 H   0  0  0  0  0  0  0  0  0  0  0  0
    4.9910    0.7502   -2.3853 H   0  0  0  0  0  0  0  0  0  0  0  0
    6.1739    2.3111   -0.9344 H   0  0  0  0  0  0  0  0  0  0  0  0
    4.4072    2.2596   -0.6096 H   0  0  0  0  0  0  0  0  0  0  0  0
    6.4779    0.6856    1.0342 H   0  0  0  0  0  0  0  0  0  0  0  0
    4.6452    0.8183    1.2870 H   0  0  0  0  0  0  0  0  0  0  0  0
    6.2658    3.1165    3.7383 H   0  0  0  0  0  0  0  0  0  0  0  0
    8.2939   -0.7731   -1.8885 H   0  0  0  0  0  0  0  0  0  0  0  0
    0.6587   -0.8452   -3.0023 H   0  0  0  0  0  0  0  0  0  0  0  0
   -1.3805   -2.0078   -2.3408 H   0  0  0  0  0  0  0  0  0  0  0  0
   -3.5944   -2.1293    1.5999 H   0  0  0  0  0  0  0  0  0  0  0  0
  1  2  1  0
  2  3  2  0
  3  4  1  0
  4  5  2  0
  4  6  1  0
  6  7  2  0
  7  8  1  0
  7  9  1  0
  9 10  1  0
 10 11  1  0
 11 12  1  0
 12 13  1  0
 13 14  1  0
 14 15  2  0
 15 16  1  0
 16 17  2  0
 17 18  1  0
 18 19  2  0
 18 20  1  0
 20 21  1  0
 21 22  1  0
 22 23  1  0
 23 24  1  0
 24 25  2  0
 24 26  1  0
 21 27  1  0
 27 28  2  0
 27 29  1  0
 17 30  1  0
 30 31  2  0
 11 32  1  0
  8  2  1  0
 31 14  1  0
 32  6  1  0
  1 33  1  0
  1 34  1  0
  8 35  1  0
  9 36  1  0
 10 37  1  0
 10 38  1  0
 11 39  1  6
 12 40  1  0
 12 41  1  0
 13 42  1  0
 15 43  1  0
 16 44  1  0
 20 45  1  0
 21 46  1  6
 22 47  1  0
 22 48  1  0
 23 49  1  0
 23 50  1  0
 26 51  1  0
 29 52  1  0
 30 53  1  0
 31 54  1  0
 32 55  1  0
M  END
$$$$

     RDKit          3D

 55 57  0  0  0  0  0  0  0  0999 V2000
    7.5288    3.8577    0.2336 N   0  0  0  0  0  0  0  0  0  0  0  0
    6.8818    2.7040   -0.2559 C   0  0  0  0  0  0  0  0  0  0  0  0
    7.0795    2.2527   -1.5286 N   0  0  0  0  0  0  0  0  0  0  0  0
    6.4462    1.1499   -1.9613 C   0  0  0  0  0  0  0  0  0  0  0  0
    6.5853    0.6808   -3.1243 O   0  0  0  0  0  0  0  0  0  0  0  0
    5.5955    0.4718   -1.1212 C   0  0  0  0  0  0  0  0  0  0  0  0
    5.4176    0.9628    0.1742 C   0  0  0  0  0  0  0  0  0  0  0  0
    6.0578    2.0669    0.5925 N   0  0  0  0  0  0  0  0  0  0  0  0
    4.5341    0.2593    1.0475 N   0  0  0  0  0  0  0  0  0  0  0  0
    4.2137   -1.1110    0.7005 C   0  0  0  0  0  0  0  0  0  0  0  0
    3.7378   -1.0834   -0.7448 C   0  0  2  0  0  0  0  0  0  0  0  0
    3.1598   -2.3928   -1.1724 C   0  0  0  0  0  0  0  0  0  0  0  0
    2.0359   -2.7191   -0.3461 N   0  0  0  0  0  0  0  0  0  0  0  0
    0.7861   -2.0031   -0.3510 C   0  0  0  0  0  0  0  0  0  0  0  0
   -0.1325   -2.2344    0.6431 C   0  0  0  0  0  0  0  0  0  0  0  0
   -1.3319   -1.5608    0.6280 C   0  0  0  0  0  0  0  0  0  0  0  0
   -1.6630   -0.6568   -0.3429 C   0  0  0  0  0  0  0  0  0  0  0  0
   -2.9330    0.0398   -0.3420 C   0  0  0  0  0  0  0  0  0  0  0  0
   -3.1584    0.9836   -1.1844 O   0  0  0  0  0  0  0  0  0  0  0  0
   -3.9548   -0.2981    0.5809 N   0  0  0  0  0  0  0  0  0  0  0  0
   -5.2330    0.4381    0.5466 C   0  0  1  0  0  0  0  0  0  0  0  0
   -6.2910   -0.5934    0.2809 C   0  0  0  0  0  0  0  0  0  0  0  0
   -7.6833   -0.0608    0.2047 C   0  0  0  0  0  0  0  0  0  0  0  0
   -7.8983    0.9325   -0.8509 C   0  0  0  0  0  0  0  0  0  0  0  0
   -9.0508    1.4416   -0.9531 O   0  0  0  0  0  0  0  0  0  0  0  0
   -6.9387    1.3640   -1.7529 O   0  0  0  0  0  0  0  0  0  0  0  0
   -5.3851    1.1054    1.8546 C   0  0  0  0  0  0  0  0  0  0  0  0
   -4.5077    0.9717    2.7355 O   0  0  0  0  0  0  0  0  0  0  0  0
   -6.4841    1.8997    2.1724 O   0  0  0  0  0  0  0  0  0  0  0  0
   -0.7327   -0.4341   -1.3345 C   0  0  0  0  0  0  0  0  0  0  0  0
    0.4792   -1.0993   -1.3403 C   0  0  0  0  0  0  0  0  0  0  0  0
    4.8995   -0.7056   -1.5349 N   0  0  0  0  0  0  0  0  0  0  0  0
    8.4548    3.7761    0.6748 H   0  0  0  0  0  0  0  0  0  0  0  0
    7.0730    4.7761    0.1478 H   0  0  0  0  0  0  0  0  0  0  0  0
    5.9009    2.4144    1.5836 H   0  0  0  0  0  0  0  0  0  0  0  0
    4.1630    0.7545    1.8849 H   0  0  0  0  0  0  0  0  0  0  0  0
    3.4748   -1.5589    1.3769 H   0  0  0  0  0  0  0  0  0  0  0  0
    5.1831   -1.6681    0.6961 H   0  0  0  0  0  0  0  0  0  0  0  0
    3.0088   -0.2842   -0.8188 H   0  0  0  0  0  0  0  0  0  0  0  0
    2.7582   -2.2398   -2.2036 H   0  0  0  0  0  0  0  0  0  0  0  0
    3.8812   -3.2239   -1.1468 H   0  0  0  0  0  0  0  0  0  0  0  0
    2.1108   -3.5364    0.3169 H   0  0  0  0  0  0  0  0  0  0  0  0
    0.0805   -2.9512    1.4494 H   0  0  0  0  0  0  0  0  0  0  0  0
   -2.0051   -1.8036    1.4596 H   0  0  0  0  0  0  0  0  0  0  0  0
   -3.8154   -1.0558    1.2766 H   0  0  0  0  0  0  0  0  0  0  0  0
   -5.1646    1.1935   -0.2635 H   0  0  0  0  0  0  0  0  0  0  0  0
   -6.1772   -1.4001    1.0163 H   0  0  0  0  0  0  0  0  0  0  0  0
   -6.0479   -1.0529   -0.7107 H   0  0  0  0  0  0  0  0  0  0  0  0
   -8.3908   -0.9284    0.0491 H   0  0  0  0  0  0  0  0  0  0  0  0
   -7.9545    0.3882    1.1885 H   0  0  0  0  0  0  0  0  0  0  0  0
   -7.2646    1.7575   -2.6260 H   0  0  0  0  0  0  0  0  0  0  0  0
   -6.8221    1.8429    3.1406 H   0  0  0  0  0  0  0  0  0  0  0  0
   -0.9528    0.2853   -2.1391 H   0  0  0  0  0  0  0  0  0  0  0  0
    1.1935   -0.9046   -2.1537 H   0  0  0  0  0  0  0  0  0  0  0  0
    5.2523   -1.2103   -2.3527 H   0  0  0  0  0  0  0  0  0  0  0  0
  1  2  1  0
  2  3  2  0
  3  4  1  0
  4  5  2  0
  4  6  1  0
  6  7  2  0
  7  8  1  0
  7  9  1  0
  9 10  1  0
 10 11  1  0
 11 12  1  0
 12 13  1  0
 13 14  1  0
 14 15  2  0
 15 16  1  0
 16 17  2  0
 17 18  1  0
 18 19  2  0
 18 20  1  0
 20 21  1  0
 21 22  1  0
 22 23  1  0
 23 24  1  0
 24 25  2  0
 24 26  1  0
 21 27  1  0
 27 28  2  0
 27 29  1  0
 17 30  1  0
 30 31  2  0
 11 32  1  0
  8  2  1  0
 31 14  1  0
 32  6  1  0
  1 33  1  0
  1 34  1  0
  8 35  1  0
  9 36  1  0
 10 37  1  0
 10 38  1  0
 11 39  1  1
 12 40  1  0
 12 41  1  0
 13 42  1  0
 15 43  1  0
 16 44  1  0
 20 45  1  0
 21 46  1  6
 22 47  1  0
 22 48  1  0
 23 49  1  0
 23 50  1  0
 26 51  1  0
 29 52  1  0
 30 53  1  0
 31 54  1  0
 32 55  1  0
M  END
$$$$

     RDKit          3D

 55 57  0  0  0  0  0  0  0  0999 V2000
    9.1489    0.3592   -0.0832 N   0  0  0  0  0  0  0  0  0  0  0  0
    7.7911    0.2623   -0.5058 C   0  0  0  0  0  0  0  0  0  0  0  0
    7.4260   -0.5371   -1.5309 N   0  0  0  0  0  0  0  0  0  0  0  0
    6.1556   -0.6461   -1.9479 C   0  0  0  0  0  0  0  0  0  0  0  0
    5.7737   -1.3735   -2.8921 O   0  0  0  0  0  0  0  0  0  0  0  0
    5.1940    0.1106   -1.2743 C   0  0  0  0  0  0  0  0  0  0  0  0
    5.5457    0.9319   -0.2264 C   0  0  0  0  0  0  0  0  0  0  0  0
    6.8363    0.9853    0.1297 N   0  0  0  0  0  0  0  0  0  0  0  0
    4.5487    1.6923    0.4442 N   0  0  0  0  0  0  0  0  0  0  0  0
    3.1909    1.7337   -0.0273 C   0  0  0  0  0  0  0  0  0  0  0  0
    2.8328    0.3697   -0.6352 C   0  0  2  0  0  0  0  0  0  0  0  0
    2.8989   -0.6218    0.4923 C   0  0  0  0  0  0  0  0  0  0  0  0
    1.9490   -0.2353    1.5061 N   0  0  0  0  0  0  0  0  0  0  0  0
    0.5672   -0.3132    1.2726 C   0  0  0  0  0  0  0  0  0  0  0  0
   -0.2772    0.3133    2.1790 C   0  0  0  0  0  0  0  0  0  0  0  0
   -1.6290    0.2342    1.9756 C   0  0  0  0  0  0  0  0  0  0  0  0
   -2.1712   -0.4416    0.9095 C   0  0  0  0  0  0  0  0  0  0  0  0
   -3.6126   -0.4819    0.7652 C   0  0  0  0  0  0  0  0  0  0  0  0
   -4.3304    0.0091    1.6662 O   0  0  0  0  0  0  0  0  0  0  0  0
   -4.2426   -1.0587   -0.3630 N   0  0  0  0  0  0  0  0  0  0  0  0
   -5.7085   -1.0912   -0.4904 C   0  0  1  0  0  0  0  0  0  0  0  0
   -6.0916   -0.3228   -1.7252 C   0  0  0  0  0  0  0  0  0  0  0  0
   -5.6394    1.1091   -1.6534 C   0  0  0  0  0  0  0  0  0  0  0  0
   -6.2058    1.8784   -0.5456 C   0  0  0  0  0  0  0  0  0  0  0  0
   -5.7952    3.0782   -0.4187 O   0  0  0  0  0  0  0  0  0  0  0  0
   -7.1277    1.4605    0.3730 O   0  0  0  0  0  0  0  0  0  0  0  0
   -6.1476   -2.5023   -0.5547 C   0  0  0  0  0  0  0  0  0  0  0  0
   -5.2956   -3.4210   -0.4990 O   0  0  0  0  0  0  0  0  0  0  0  0
   -7.4738   -2.8780   -0.6753 O   0  0  0  0  0  0  0  0  0  0  0  0
   -1.3304   -1.0694    0.0015 C   0  0  0  0  0  0  0  0  0  0  0  0
    0.0202   -0.9897    0.2061 C   0  0  0  0  0  0  0  0  0  0  0  0
    3.8219    0.0569   -1.6487 N   0  0  0  0  0  0  0  0  0  0  0  0
    9.6975   -0.4821    0.1651 H   0  0  0  0  0  0  0  0  0  0  0  0
    9.5550    1.3192   -0.0390 H   0  0  0  0  0  0  0  0  0  0  0  0
    7.0878    1.6250    0.9409 H   0  0  0  0  0  0  0  0  0  0  0  0
    4.8653    2.2199    1.3020 H   0  0  0  0  0  0  0  0  0  0  0  0
    3.0472    2.5003   -0.8251 H   0  0  0  0  0  0  0  0  0  0  0  0
    2.5363    1.9701    0.8142 H   0  0  0  0  0  0  0  0  0  0  0  0
    1.8411    0.4246   -1.0676 H   0  0  0  0  0  0  0  0  0  0  0  0
    2.6950   -1.6638    0.1530 H   0  0  0  0  0  0  0  0  0  0  0  0
    3.9411   -0.6280    0.8669 H   0  0  0  0  0  0  0  0  0  0  0  0
    2.3297    0.1001    2.4088 H   0  0  0  0  0  0  0  0  0  0  0  0
    0.1442    0.8589    3.0386 H   0  0  0  0  0  0  0  0  0  0  0  0
   -2.2742    0.7386    2.7076 H   0  0  0  0  0  0  0  0  0  0  0  0
   -3.7051   -1.4817   -1.1464 H   0  0  0  0  0  0  0  0  0  0  0  0
   -6.1781   -0.6369    0.3971 H   0  0  0  0  0  0  0  0  0  0  0  0
   -5.6908   -0.8092   -2.6319 H   0  0  0  0  0  0  0  0  0  0  0  0
   -7.2080   -0.3378   -1.7938 H   0  0  0  0  0  0  0  0  0  0  0  0
   -4.5246    1.1647   -1.5675 H   0  0  0  0  0  0  0  0  0  0  0  0
   -5.8643    1.5999   -2.6396 H   0  0  0  0  0  0  0  0  0  0  0  0
   -7.6896    2.0738    0.9386 H   0  0  0  0  0  0  0  0  0  0  0  0
   -7.7296   -3.8453   -0.5789 H   0  0  0  0  0  0  0  0  0  0  0  0
   -1.7140   -1.6086   -0.8450 H   0  0  0  0  0  0  0  0  0  0  0  0
    0.6484   -1.5014   -0.5149 H   0  0  0  0  0  0  0  0  0  0  0  0
    3.5674   -0.2018   -2.6254 H   0  0  0  0  0  0  0  0  0  0  0  0
  1  2  1  0
  2  3  2  0
  3  4  1  0
  4  5  2  0
  4  6  1  0
  6  7  2  0
  7  8  1  0
  7  9  1  0
  9 10  1  0
 10 11  1  0
 11 12  1  0
 12 13  1  0
 13 14  1  0
 14 15  2  0
 15 16  1  0
 16 17  2  0
 17 18  1  0
 18 19  2  0
 18 20  1  0
 20 21  1  0
 21 22  1  0
 22 23  1  0
 23 24  1  0
 24 25  2  0
 24 26  1  0
 21 27  1  0
 27 28  2  0
 27 29  1  0
 17 30  1  0
 30 31  2  0
 11 32  1  0
  8  2  1  0
 31 14  1  0
 32  6  1  0
  1 33  1  0
  1 34  1  0
  8 35  1  0
  9 36  1  0
 10 37  1  0
 10 38  1  0
 11 39  1  6
 12 40  1  0
 12 41  1  0
 13 42  1  0
 15 43  1  0
 16 44  1  0
 20 45  1  0
 21 46  1  1
 22 47  1  0
 22 48  1  0
 23 49  1  0
 23 50  1  0
 26 51  1  0
 29 52  1  0
 30 53  1  0
 31 54  1  0
 32 55  1  0
M  END
$$$$

     RDKit          3D

 55 57  0  0  0  0  0  0  0  0999 V2000
   10.3714    0.1317   -1.1563 N   0  0  0  0  0  0  0  0  0  0  0  0
    9.0385    0.3109   -0.6902 C   0  0  0  0  0  0  0  0  0  0  0  0
    8.7822    0.8680    0.5196 N   0  0  0  0  0  0  0  0  0  0  0  0
    7.5110    1.0231    0.9312 C   0  0  0  0  0  0  0  0  0  0  0  0
    7.2350    1.5441    2.0646 O   0  0  0  0  0  0  0  0  0  0  0  0
    6.4287    0.6387    0.1749 C   0  0  0  0  0  0  0  0  0  0  0  0
    6.6984    0.0734   -1.0533 C   0  0  0  0  0  0  0  0  0  0  0  0
    7.9789   -0.0667   -1.4333 N   0  0  0  0  0  0  0  0  0  0  0  0
    5.5988   -0.3378   -1.8675 N   0  0  0  0  0  0  0  0  0  0  0  0
    4.2567    0.0714   -1.5450 C   0  0  0  0  0  0  0  0  0  0  0  0
    4.0445    0.0127   -0.0695 C   0  0  2  0  0  0  0  0  0  0  0  0
    2.6823    0.4456    0.3672 C   0  0  0  0  0  0  0  0  0  0  0  0
    1.6341   -0.3534   -0.1912 N   0  0  0  0  0  0  0  0  0  0  0  0
    0.2842   -0.0619    0.1282 C   0  0  0  0  0  0  0  0  0  0  0  0
   -0.7711   -0.7932   -0.3593 C   0  0  0  0  0  0  0  0  0  0  0  0
   -2.0847   -0.4752   -0.0223 C   0  0  0  0  0  0  0  0  0  0  0  0
   -2.3563    0.5858    0.8121 C   0  0  0  0  0  0  0  0  0  0  0  0
   -3.6995    0.9697    1.2068 C   0  0  0  0  0  0  0  0  0  0  0  0
   -3.9191    2.0464    1.8515 O   0  0  0  0  0  0  0  0  0  0  0  0
   -4.8009    0.1697    0.8935 N   0  0  0  0  0  0  0  0  0  0  0  0
   -6.1650    0.5481    1.2868 C   0  0  1  0  0  0  0  0  0  0  0  0
   -7.0738    0.6139    0.1026 C   0  0  0  0  0  0  0  0  0  0  0  0
   -7.1707   -0.7200   -0.6203 C   0  0  0  0  0  0  0  0  0  0  0  0
   -8.0958   -0.5305   -1.7683 C   0  0  0  0  0  0  0  0  0  0  0  0
   -7.7575    0.0599   -2.8265 O   0  0  0  0  0  0  0  0  0  0  0  0
   -9.4097   -1.0145   -1.7111 O   0  0  0  0  0  0  0  0  0  0  0  0
   -6.6300   -0.4802    2.2547 C   0  0  0  0  0  0  0  0  0  0  0  0
   -5.9314   -1.4514    2.6120 O   0  0  0  0  0  0  0  0  0  0  0  0
   -7.9016   -0.3455    2.7800 O   0  0  0  0  0  0  0  0  0  0  0  0
   -1.3037    1.3261    1.3067 C   0  0  0  0  0  0  0  0  0  0  0  0
   -0.0221    0.9919    0.9594 C   0  0  0  0  0  0  0  0  0  0  0  0
    5.0766    0.7912    0.5859 N   0  0  0  0  0  0  0  0  0  0  0  0
   10.6211    0.5443   -2.0770 H   0  0  0  0  0  0  0  0  0  0  0  0
   11.1132   -0.3832   -0.6401 H   0  0  0  0  0  0  0  0  0  0  0  0
    8.1945   -0.4984   -2.3729 H   0  0  0  0  0  0  0  0  0  0  0  0
    5.8437   -0.9470   -2.6987 H   0  0  0  0  0  0  0  0  0  0  0  0
    4.1613    1.1334   -1.8833 H   0  0  0  0  0  0  0  0  0  0  0  0
    3.5124   -0.5076   -2.1224 H   0  0  0  0  0  0  0  0  0  0  0  0
    4.2000   -1.0457    0.2932 H   0  0  0  0  0  0  0  0  0  0  0  0
    2.5036    1.5166    0.1426 H   0  0  0  0  0  0  0  0  0  0  0  0
    2.6392    0.2992    1.4826 H   0  0  0  0  0  0  0  0  0  0  0  0
    1.8379   -1.1631   -0.8415 H   0  0  0  0  0  0  0  0  0  0  0  0
   -0.5587   -1.6386   -1.0240 H   0  0  0  0  0  0  0  0  0  0  0  0
   -2.8695   -1.0743   -0.4284 H   0  0  0  0  0  0  0  0  0  0  0  0
   -4.6646   -0.7171    0.3707 H   0  0  0  0  0  0  0  0  0  0  0  0
   -6.1779    1.5145    1.8122 H   0  0  0  0  0  0  0  0  0  0  0  0
   -6.7515    1.3521   -0.6335 H   0  0  0  0  0  0  0  0  0  0  0  0
   -8.0868    0.9038    0.4442 H   0  0  0  0  0  0  0  0  0  0  0  0
   -6.1937   -1.0161   -1.0386 H   0  0  0  0  0  0  0  0  0  0  0  0
   -7.5776   -1.5147    0.0241 H   0  0  0  0  0  0  0  0  0  0  0  0
  -10.1485   -0.6297   -2.2823 H   0  0  0  0  0  0  0  0  0  0  0  0
   -8.3326   -1.0971    3.2932 H   0  0  0  0  0  0  0  0  0  0  0  0
   -1.4912    2.1528    1.9555 H   0  0  0  0  0  0  0  0  0  0  0  0
    0.8294    1.5651    1.3402 H   0  0  0  0  0  0  0  0  0  0  0  0
    4.8681    1.4718    1.3607 H   0  0  0  0  0  0  0  0  0  0  0  0
  1  2  1  0
  2  3  2  0
  3  4  1  0
  4  5  2  0
  4  6  1  0
  6  7  2  0
  7  8  1  0
  7  9  1  0
  9 10  1  0
 10 11  1  0
 11 12  1  0
 12 13  1  0
 13 14  1  0
 14 15  2  0
 15 16  1  0
 16 17  2  0
 17 18  1  0
 18 19  2  0
 18 20  1  0
 20 21  1  0
 21 22  1  0
 22 23  1  0
 23 24  1  0
 24 25  2  0
 24 26  1  0
 21 27  1  0
 27 28  2  0
 27 29  1  0
 17 30  1  0
 30 31  2  0
 11 32  1  0
  8  2  1  0
 31 14  1  0
 32  6  1  0
  1 33  1  0
  1 34  1  0
  8 35  1  0
  9 36  1  0
 10 37  1  0
 10 38  1  0
 11 39  1  1
 12 40  1  0
 12 41  1  0
 13 42  1  0
 15 43  1  0
 16 44  1  0
 20 45  1  0
 21 46  1  1
 22 47  1  0
 22 48  1  0
 23 49  1  0
 23 50  1  0
 26 51  1  0
 29 52  1  0
 30 53  1  0
 31 54  1  0
 32 55  1  0
M  END
$$$$

     RDKit          3D

 55 57  0  0  0  0  0  0  0  0999 V2000
   10.0869    1.1587    0.3640 N   0  0  0  0  0  0  0  0  0  0  0  0
    8.7844    0.6132    0.1515 C   0  0  0  0  0  0  0  0  0  0  0  0
    8.6093   -0.5502   -0.5202 N   0  0  0  0  0  0  0  0  0  0  0  0
    7.3655   -1.0285   -0.6974 C   0  0  0  0  0  0  0  0  0  0  0  0
    7.1577   -2.1224   -1.3251 O   0  0  0  0  0  0  0  0  0  0  0  0
    6.2377   -0.3911   -0.2263 C   0  0  0  0  0  0  0  0  0  0  0  0
    6.4306    0.7954    0.4572 C   0  0  0  0  0  0  0  0  0  0  0  0
    7.6848    1.2355    0.6113 N   0  0  0  0  0  0  0  0  0  0  0  0
    5.2796    1.4545    0.9447 N   0  0  0  0  0  0  0  0  0  0  0  0
    3.9886    0.7755    1.0063 C   0  0  0  0  0  0  0  0  0  0  0  0
    3.8249    0.0207   -0.2926 C   0  0  2  0  0  0  0  0  0  0  0  0
    2.4842   -0.6562   -0.4050 C   0  0  0  0  0  0  0  0  0  0  0  0
    1.4429    0.3398   -0.3347 N   0  0  0  0  0  0  0  0  0  0  0  0
    0.0637    0.0154   -0.4069 C   0  0  0  0  0  0  0  0  0  0  0  0
   -0.9257    0.9654   -0.3337 C   0  0  0  0  0  0  0  0  0  0  0  0
   -2.2698    0.6476   -0.4027 C   0  0  0  0  0  0  0  0  0  0  0  0
   -2.6251   -0.6750   -0.5508 C   0  0  0  0  0  0  0  0  0  0  0  0
   -4.0030   -1.1208   -0.6368 C   0  0  0  0  0  0  0  0  0  0  0  0
   -4.2535   -2.3452   -0.6523 O   0  0  0  0  0  0  0  0  0  0  0  0
   -5.1151   -0.2456   -0.7062 N   0  0  0  0  0  0  0  0  0  0  0  0
   -6.4751   -0.6846   -0.7898 C   0  0  1  0  0  0  0  0  0  0  0  0
   -7.4424    0.0464    0.0798 C   0  0  0  0  0  0  0  0  0  0  0  0
   -7.1774   -0.0195    1.5394 C   0  0  0  0  0  0  0  0  0  0  0  0
   -5.8818    0.5491    1.9560 C   0  0  0  0  0  0  0  0  0  0  0  0
   -4.9400   -0.2163    2.2372 O   0  0  0  0  0  0  0  0  0  0  0  0
   -5.7217    1.9455    2.0316 O   0  0  0  0  0  0  0  0  0  0  0  0
   -6.9430   -0.6712   -2.2239 C   0  0  0  0  0  0  0  0  0  0  0  0
   -6.1769   -0.3178   -3.1184 O   0  0  0  0  0  0  0  0  0  0  0  0
   -8.2294   -1.0606   -2.4887 O   0  0  0  0  0  0  0  0  0  0  0  0
   -1.6276   -1.6288   -0.6243 C   0  0  0  0  0  0  0  0  0  0  0  0
   -0.2855   -1.3064   -0.5548 C   0  0  0  0  0  0  0  0  0  0  0  0
    4.9291   -0.9059   -0.4210 N   0  0  0  0  0  0  0  0  0  0  0  0
   10.5275    1.8916   -0.2288 H   0  0  0  0  0  0  0  0  0  0  0  0
   10.6385    0.7991    1.1696 H   0  0  0  0  0  0  0  0  0  0  0  0
    7.8299    2.1321    1.1268 H   0  0  0  0  0  0  0  0  0  0  0  0
    5.3875    2.4591    1.2636 H   0  0  0  0  0  0  0  0  0  0  0  0
    3.1843    1.5196    1.1701 H   0  0  0  0  0  0  0  0  0  0  0  0
    4.0306    0.0234    1.8172 H   0  0  0  0  0  0  0  0  0  0  0  0
    3.9469    0.7839   -1.1051 H   0  0  0  0  0  0  0  0  0  0  0  0
    2.3770   -1.4652    0.3340 H   0  0  0  0  0  0  0  0  0  0  0  0
    2.4374   -1.0674   -1.4553 H   0  0  0  0  0  0  0  0  0  0  0  0
    1.7085    1.3618   -0.2247 H   0  0  0  0  0  0  0  0  0  0  0  0
   -0.6891    2.0190   -0.2178 H   0  0  0  0  0  0  0  0  0  0  0  0
   -3.0315    1.4276   -0.3404 H   0  0  0  0  0  0  0  0  0  0  0  0
   -4.9013    0.7910   -0.6950 H   0  0  0  0  0  0  0  0  0  0  0  0
   -6.4755   -1.7883   -0.5445 H   0  0  0  0  0  0  0  0  0  0  0  0
   -8.4809   -0.3760   -0.0855 H   0  0  0  0  0  0  0  0  0  0  0  0
   -7.5278    1.1047   -0.2774 H   0  0  0  0  0  0  0  0  0  0  0  0
   -7.9830    0.5561    2.0917 H   0  0  0  0  0  0  0  0  0  0  0  0
   -7.2900   -1.0611    1.9475 H   0  0  0  0  0  0  0  0  0  0  0  0
   -4.7998    2.3536    1.9211 H   0  0  0  0  0  0  0  0  0  0  0  0
   -8.5467   -1.3637   -3.4094 H   0  0  0  0  0  0  0  0  0  0  0  0
   -1.8620   -2.6990   -0.7433 H   0  0  0  0  0  0  0  0  0  0  0  0
    0.4615   -2.1078   -0.6191 H   0  0  0  0  0  0  0  0  0  0  0  0
    4.7807   -1.9107   -0.6470 H   0  0  0  0  0  0  0  0  0  0  0  0
  1  2  1  0
  2  3  2  0
  3  4  1  0
  4  5  2  0
  4  6  1  0
  6  7  2  0
  7  8  1  0
  7  9  1  0
  9 10  1  0
 10 11  1  0
 11 12  1  0
 12 13  1  0
 13 14  1  0
 14 15  2  0
 15 16  1  0
 16 17  2  0
 17 18  1  0
 18 19  2  0
 18 20  1  0
 20 21  1  0
 21 22  1  0
 22 23  1  0
 23 24  1  0
 24 25  2  0
 24 26  1  0
 21 27  1  0
 27 28  2  0
 27 29  1  0
 17 30  1  0
 30 31  2  0
 11 32  1  0
  8  2  1  0
 31 14  1  0
 32  6  1  0
  1 33  1  0
  1 34  1  0
  8 35  1  0
  9 36  1  0
 10 37  1  0
 10 38  1  0
 11 39  1  6
 12 40  1  0
 12 41  1  0
 13 42  1  0
 15 43  1  0
 16 44  1  0
 20 45  1  0
 21 46  1  1
 22 47  1  0
 22 48  1  0
 23 49  1  0
 23 50  1  0
 26 51  1  0
 29 52  1  0
 30 53  1  0
 31 54  1  0
 32 55  1  0
M  END
$$$$

     RDKit          3D

 55 57  0  0  0  0  0  0  0  0999 V2000
    9.9592    0.7487   -1.0469 N   0  0  0  0  0  0  0  0  0  0  0  0
    8.5830    0.5829   -0.6654 C   0  0  0  0  0  0  0  0  0  0  0  0
    8.1265    1.0216    0.5185 N   0  0  0  0  0  0  0  0  0  0  0  0
    6.8188    0.8427    0.8351 C   0  0  0  0  0  0  0  0  0  0  0  0
    6.3589    1.2486    1.9505 O   0  0  0  0  0  0  0  0  0  0  0  0
    5.9386    0.2253   -0.0167 C   0  0  0  0  0  0  0  0  0  0  0  0
    6.4337   -0.2199   -1.2355 C   0  0  0  0  0  0  0  0  0  0  0  0
    7.7405   -0.0286   -1.5246 N   0  0  0  0  0  0  0  0  0  0  0  0
    5.5414   -0.8593   -2.1303 N   0  0  0  0  0  0  0  0  0  0  0  0
    4.1060   -0.6370   -1.9606 C   0  0  0  0  0  0  0  0  0  0  0  0
    3.8235   -0.9274   -0.4924 C   0  0  2  0  0  0  0  0  0  0  0  0
    2.3395   -0.8643   -0.1994 C   0  0  0  0  0  0  0  0  0  0  0  0
    1.7993    0.4455   -0.5004 N   0  0  0  0  0  0  0  0  0  0  0  0
    0.4160    0.6893   -0.2921 C   0  0  0  0  0  0  0  0  0  0  0  0
   -0.4139   -0.2984    0.1872 C   0  0  0  0  0  0  0  0  0  0  0  0
   -1.7834   -0.0771    0.3987 C   0  0  0  0  0  0  0  0  0  0  0  0
   -2.3566    1.1443    0.1340 C   0  0  0  0  0  0  0  0  0  0  0  0
   -3.7765    1.4005    0.3423 C   0  0  0  0  0  0  0  0  0  0  0  0
   -4.1739    2.5821    0.1304 O   0  0  0  0  0  0  0  0  0  0  0  0
   -4.7106    0.4197    0.7587 N   0  0  0  0  0  0  0  0  0  0  0  0
   -6.1344    0.7217    0.9566 C   0  0  1  0  0  0  0  0  0  0  0  0
   -6.9811    0.0831   -0.0730 C   0  0  0  0  0  0  0  0  0  0  0  0
   -6.9443   -1.3764   -0.2426 C   0  0  0  0  0  0  0  0  0  0  0  0
   -7.3046   -2.2504    0.8436 C   0  0  0  0  0  0  0  0  0  0  0  0
   -7.6639   -1.8614    1.9601 O   0  0  0  0  0  0  0  0  0  0  0  0
   -7.2496   -3.6298    0.6378 O   0  0  0  0  0  0  0  0  0  0  0  0
   -6.5311    0.6448    2.3477 C   0  0  0  0  0  0  0  0  0  0  0  0
   -5.7165    0.2553    3.2237 O   0  0  0  0  0  0  0  0  0  0  0  0
   -7.8020    0.9889    2.8116 O   0  0  0  0  0  0  0  0  0  0  0  0
   -1.5076    2.1319   -0.3491 C   0  0  0  0  0  0  0  0  0  0  0  0
   -0.1634    1.9141   -0.5565 C   0  0  0  0  0  0  0  0  0  0  0  0
    4.5741    0.0265    0.2886 N   0  0  0  0  0  0  0  0  0  0  0  0
   10.2490    0.6541   -2.0394 H   0  0  0  0  0  0  0  0  0  0  0  0
   10.6973    0.9673   -0.3391 H   0  0  0  0  0  0  0  0  0  0  0  0
    8.1070   -0.3715   -2.4544 H   0  0  0  0  0  0  0  0  0  0  0  0
    5.9289   -1.4634   -2.8759 H   0  0  0  0  0  0  0  0  0  0  0  0
    3.5026   -1.3388   -2.5586 H   0  0  0  0  0  0  0  0  0  0  0  0
    3.9177    0.4297   -2.1930 H   0  0  0  0  0  0  0  0  0  0  0  0
    4.2334   -1.9320   -0.2855 H   0  0  0  0  0  0  0  0  0  0  0  0
    2.2469   -1.0694    0.9049 H   0  0  0  0  0  0  0  0  0  0  0  0
    1.8154   -1.6806   -0.7074 H   0  0  0  0  0  0  0  0  0  0  0  0
    2.4133    1.2050   -0.8658 H   0  0  0  0  0  0  0  0  0  0  0  0
   -0.0093   -1.2821    0.4120 H   0  0  0  0  0  0  0  0  0  0  0  0
   -2.3974   -0.8878    0.7795 H   0  0  0  0  0  0  0  0  0  0  0  0
   -4.3464   -0.5439    0.9229 H   0  0  0  0  0  0  0  0  0  0  0  0
   -6.1774    1.8441    0.7030 H   0  0  0  0  0  0  0  0  0  0  0  0
   -6.6736    0.5396   -1.0650 H   0  0  0  0  0  0  0  0  0  0  0  0
   -8.0626    0.4118    0.0065 H   0  0  0  0  0  0  0  0  0  0  0  0
   -5.9546   -1.6958   -0.7268 H   0  0  0  0  0  0  0  0  0  0  0  0
   -7.6626   -1.6268   -1.0970 H   0  0  0  0  0  0  0  0  0  0  0  0
   -7.6854   -4.2458    1.3204 H   0  0  0  0  0  0  0  0  0  0  0  0
   -8.1664    0.6702    3.6994 H   0  0  0  0  0  0  0  0  0  0  0  0
   -1.9473    3.0932   -0.5596 H   0  0  0  0  0  0  0  0  0  0  0  0
    0.5030    2.6806   -0.9330 H   0  0  0  0  0  0  0  0  0  0  0  0
    4.1226    0.5548    1.0572 H   0  0  0  0  0  0  0  0  0  0  0  0
  1  2  1  0
  2  3  2  0
  3  4  1  0
  4  5  2  0
  4  6  1  0
  6  7  2  0
  7  8  1  0
  7  9  1  0
  9 10  1  0
 10 11  1  0
 11 12  1  0
 12 13  1  0
 13 14  1  0
 14 15  2  0
 15 16  1  0
 16 17  2  0
 17 18  1  0
 18 19  2  0
 18 20  1  0
 20 21  1  0
 21 22  1  0
 22 23  1  0
 23 24  1  0
 24 25  2  0
 24 26  1  0
 21 27  1  0
 27 28  2  0
 27 29  1  0
 17 30  1  0
 30 31  2  0
 11 32  1  0
  8  2  1  0
 31 14  1  0
 32  6  1  0
  1 33  1  0
  1 34  1  0
  8 35  1  0
  9 36  1  0
 10 37  1  0
 10 38  1  0
 11 39  1  1
 12 40  1  0
 12 41  1  0
 13 42  1  0
 15 43  1  0
 16 44  1  0
 20 45  1  0
 21 46  1  6
 22 47  1  0
 22 48  1  0
 23 49  1  0
 23 50  1  0
 26 51  1  0
 29 52  1  0
 30 53  1  0
 31 54  1  0
 32 55  1  0
M  END
$$$$

     RDKit          3D

 55 57  0  0  0  0  0  0  0  0999 V2000
   -9.9329    0.4837   -1.2986 N   0  0  0  0  0  0  0  0  0  0  0  0
   -8.5232    0.3438   -1.0435 C   0  0  0  0  0  0  0  0  0  0  0  0
   -7.6778    1.0993   -1.7673 N   0  0  0  0  0  0  0  0  0  0  0  0
   -6.3649    0.9500   -1.5095 C   0  0  0  0  0  0  0  0  0  0  0  0
   -5.4694    1.6052   -2.1248 O   0  0  0  0  0  0  0  0  0  0  0  0
   -5.9032    0.0646   -0.5487 C   0  0  0  0  0  0  0  0  0  0  0  0
   -6.8251   -0.6774    0.1551 C   0  0  0  0  0  0  0  0  0  0  0  0
   -8.1559   -0.5232   -0.1092 N   0  0  0  0  0  0  0  0  0  0  0  0
   -6.3684   -1.5850    1.1383 N   0  0  0  0  0  0  0  0  0  0  0  0
   -5.0089   -1.5579    1.6525 C   0  0  0  0  0  0  0  0  0  0  0  0
   -4.0549   -1.2518    0.4941 C   0  0  2  0  0  0  0  0  0  0  0  0
   -2.6861   -0.9541    1.0506 C   0  0  0  0  0  0  0  0  0  0  0  0
   -1.8005   -0.6680   -0.0585 N   0  0  0  0  0  0  0  0  0  0  0  0
   -0.4428   -0.3521    0.2036 C   0  0  0  0  0  0  0  0  0  0  0  0
    0.4244   -0.0745   -0.8302 C   0  0  0  0  0  0  0  0  0  0  0  0
    1.7503    0.2332   -0.5558 C   0  0  0  0  0  0  0  0  0  0  0  0
    2.1829    0.2572    0.7476 C   0  0  0  0  0  0  0  0  0  0  0  0
    3.5942    0.5864    1.0296 C   0  0  0  0  0  0  0  0  0  0  0  0
    4.0174    0.5871    2.2306 O   0  0  0  0  0  0  0  0  0  0  0  0
    4.5260    0.9083    0.0274 N   0  0  0  0  0  0  0  0  0  0  0  0
    5.9048    1.2228    0.3842 C   0  0  1  0  0  0  0  0  0  0  0  0
    6.7314    0.1513   -0.2889 C   0  0  0  0  0  0  0  0  0  0  0  0
    8.1967    0.2532   -0.0703 C   0  0  0  0  0  0  0  0  0  0  0  0
    8.8739   -0.8638   -0.7768 C   0  0  0  0  0  0  0  0  0  0  0  0
   10.1277   -0.9920   -0.7429 O   0  0  0  0  0  0  0  0  0  0  0  0
    8.1394   -1.7781   -1.4809 O   0  0  0  0  0  0  0  0  0  0  0  0
    6.2969    2.5525   -0.1062 C   0  0  0  0  0  0  0  0  0  0  0  0
    5.4341    3.2223   -0.7679 O   0  0  0  0  0  0  0  0  0  0  0  0
    7.5178    3.1621    0.0771 O   0  0  0  0  0  0  0  0  0  0  0  0
    1.3230   -0.0195    1.7964 C   0  0  0  0  0  0  0  0  0  0  0  0
    0.0244   -0.3197    1.5081 C   0  0  0  0  0  0  0  0  0  0  0  0
   -4.5300   -0.1111   -0.2578 N   0  0  0  0  0  0  0  0  0  0  0  0
  -10.5820    0.4202   -0.4885 H   0  0  0  0  0  0  0  0  0  0  0  0
  -10.2198    0.6409   -2.2847 H   0  0  0  0  0  0  0  0  0  0  0  0
   -8.8358   -1.0998    0.4404 H   0  0  0  0  0  0  0  0  0  0  0  0
   -7.0435   -2.3034    1.5056 H   0  0  0  0  0  0  0  0  0  0  0  0
   -4.7331   -2.5608    2.0431 H   0  0  0  0  0  0  0  0  0  0  0  0
   -4.8958   -0.7725    2.4053 H   0  0  0  0  0  0  0  0  0  0  0  0
   -3.9901   -2.1115   -0.1970 H   0  0  0  0  0  0  0  0  0  0  0  0
   -2.3089   -1.8757    1.5639 H   0  0  0  0  0  0  0  0  0  0  0  0
   -2.7595   -0.1237    1.7701 H   0  0  0  0  0  0  0  0  0  0  0  0
   -2.1256   -0.6859   -1.0486 H   0  0  0  0  0  0  0  0  0  0  0  0
    0.0508   -0.1011   -1.8639 H   0  0  0  0  0  0  0  0  0  0  0  0
    2.3949    0.4453   -1.4209 H   0  0  0  0  0  0  0  0  0  0  0  0
    4.2808    0.9354   -0.9790 H   0  0  0  0  0  0  0  0  0  0  0  0
    6.0219    1.1504    1.4996 H   0  0  0  0  0  0  0  0  0  0  0  0
    6.3004   -0.8214    0.0291 H   0  0  0  0  0  0  0  0  0  0  0  0
    6.4731    0.2230   -1.3864 H   0  0  0  0  0  0  0  0  0  0  0  0
    8.4034    0.2563    1.0091 H   0  0  0  0  0  0  0  0  0  0  0  0
    8.5476    1.2051   -0.5638 H   0  0  0  0  0  0  0  0  0  0  0  0
    8.4969   -2.6887   -1.8024 H   0  0  0  0  0  0  0  0  0  0  0  0
    7.9452    3.8124   -0.5739 H   0  0  0  0  0  0  0  0  0  0  0  0
    1.7384    0.0194    2.7948 H   0  0  0  0  0  0  0  0  0  0  0  0
   -0.6321   -0.5336    2.3510 H   0  0  0  0  0  0  0  0  0  0  0  0
   -3.8481    0.6151   -0.6039 H   0  0  0  0  0  0  0  0  0  0  0  0
  1  2  1  0
  2  3  2  0
  3  4  1  0
  4  5  2  0
  4  6  1  0
  6  7  2  0
  7  8  1  0
  7  9  1  0
  9 10  1  0
 10 11  1  0
 11 12  1  0
 12 13  1  0
 13 14  1  0
 14 15  2  0
 15 16  1  0
 16 17  2  0
 17 18  1  0
 18 19  2  0
 18 20  1  0
 20 21  1  0
 21 22  1  0
 22 23  1  0
 23 24  1  0
 24 25  2  0
 24 26  1  0
 21 27  1  0
 27 28  2  0
 27 29  1  0
 17 30  1  0
 30 31  2  0
 11 32  1  0
  8  2  1  0
 31 14  1  0
 32  6  1  0
  1 33  1  0
  1 34  1  0
  8 35  1  0
  9 36  1  0
 10 37  1  0
 10 38  1  0
 11 39  1  6
 12 40  1  0
 12 41  1  0
 13 42  1  0
 15 43  1  0
 16 44  1  0
 20 45  1  0
 21 46  1  1
 22 47  1  0
 22 48  1  0
 23 49  1  0
 23 50  1  0
 26 51  1  0
 29 52  1  0
 30 53  1  0
 31 54  1  0
 32 55  1  0
M  END
$$$$

     RDKit          3D

 55 57  0  0  0  0  0  0  0  0999 V2000
  -10.0000    2.0702   -0.5610 N   0  0  0  0  0  0  0  0  0  0  0  0
   -8.7811    1.4096   -0.1887 C   0  0  0  0  0  0  0  0  0  0  0  0
   -8.7035    0.6657    0.9363 N   0  0  0  0  0  0  0  0  0  0  0  0
   -7.5319    0.0714    1.2291 C   0  0  0  0  0  0  0  0  0  0  0  0
   -7.4134   -0.6366    2.2755 O   0  0  0  0  0  0  0  0  0  0  0  0
   -6.4177    0.1879    0.4377 C   0  0  0  0  0  0  0  0  0  0  0  0
   -6.5266    0.9582   -0.7117 C   0  0  0  0  0  0  0  0  0  0  0  0
   -7.7068    1.5449   -0.9877 N   0  0  0  0  0  0  0  0  0  0  0  0
   -5.3843    1.0817   -1.5295 N   0  0  0  0  0  0  0  0  0  0  0  0
   -4.1808    0.2971   -1.3196 C   0  0  0  0  0  0  0  0  0  0  0  0
   -3.9877    0.1620    0.1702 C   0  0  2  0  0  0  0  0  0  0  0  0
   -2.7180   -0.5053    0.5490 C   0  0  0  0  0  0  0  0  0  0  0  0
   -1.6111    0.2435    0.0475 N   0  0  0  0  0  0  0  0  0  0  0  0
   -0.2513   -0.1530    0.2522 C   0  0  0  0  0  0  0  0  0  0  0  0
    0.0705   -1.2977    0.9511 C   0  0  0  0  0  0  0  0  0  0  0  0
    1.3783   -1.6893    1.1556 C   0  0  0  0  0  0  0  0  0  0  0  0
    2.4449   -0.9337    0.6571 C   0  0  0  0  0  0  0  0  0  0  0  0
    3.8070   -1.3872    0.8979 C   0  0  0  0  0  0  0  0  0  0  0  0
    3.9878   -2.4720    1.5312 O   0  0  0  0  0  0  0  0  0  0  0  0
    4.9011   -0.6557    0.4484 N   0  0  0  0  0  0  0  0  0  0  0  0
    6.2752   -1.0873    0.6761 C   0  0  1  0  0  0  0  0  0  0  0  0
    6.8674   -1.4849   -0.6263 C   0  0  0  0  0  0  0  0  0  0  0  0
    6.8886   -0.5093   -1.7258 C   0  0  0  0  0  0  0  0  0  0  0  0
    7.6586    0.7004   -1.4924 C   0  0  0  0  0  0  0  0  0  0  0  0
    8.3513    0.9211   -0.4934 O   0  0  0  0  0  0  0  0  0  0  0  0
    7.6588    1.7555   -2.4515 O   0  0  0  0  0  0  0  0  0  0  0  0
    7.0324   -0.2427    1.5759 C   0  0  0  0  0  0  0  0  0  0  0  0
    6.6727    0.8554    2.0727 O   0  0  0  0  0  0  0  0  0  0  0  0
    8.3178   -0.6911    1.9519 O   0  0  0  0  0  0  0  0  0  0  0  0
    2.1106    0.2042   -0.0373 C   0  0  0  0  0  0  0  0  0  0  0  0
    0.7812    0.5966   -0.2417 C   0  0  0  0  0  0  0  0  0  0  0  0
   -5.1693   -0.4316    0.7283 N   0  0  0  0  0  0  0  0  0  0  0  0
  -10.8615    1.4778   -0.4958 H   0  0  0  0  0  0  0  0  0  0  0  0
  -10.0243    3.0646   -0.8727 H   0  0  0  0  0  0  0  0  0  0  0  0
   -7.7561    2.1277   -1.8752 H   0  0  0  0  0  0  0  0  0  0  0  0
   -5.3876    1.7685   -2.3318 H   0  0  0  0  0  0  0  0  0  0  0  0
   -4.3307   -0.7267   -1.7565 H   0  0  0  0  0  0  0  0  0  0  0  0
   -3.3060    0.7262   -1.8077 H   0  0  0  0  0  0  0  0  0  0  0  0
   -3.9324    1.2189    0.5666 H   0  0  0  0  0  0  0  0  0  0  0  0
   -2.6770   -1.5833    0.3066 H   0  0  0  0  0  0  0  0  0  0  0  0
   -2.6526   -0.4641    1.6758 H   0  0  0  0  0  0  0  0  0  0  0  0
   -1.7833    1.1108   -0.4880 H   0  0  0  0  0  0  0  0  0  0  0  0
   -0.7772   -1.8752    1.3328 H   0  0  0  0  0  0  0  0  0  0  0  0
    1.6083   -2.5950    1.7091 H   0  0  0  0  0  0  0  0  0  0  0  0
    4.7857    0.2437   -0.0770 H   0  0  0  0  0  0  0  0  0  0  0  0
    6.1283   -2.0848    1.2474 H   0  0  0  0  0  0  0  0  0  0  0  0
    6.2455   -2.3747   -0.9825 H   0  0  0  0  0  0  0  0  0  0  0  0
    7.9055   -1.9155   -0.4264 H   0  0  0  0  0  0  0  0  0  0  0  0
    7.3340   -0.9669   -2.6794 H   0  0  0  0  0  0  0  0  0  0  0  0
    5.8422   -0.2425   -2.0773 H   0  0  0  0  0  0  0  0  0  0  0  0
    7.7244    2.7234   -2.1159 H   0  0  0  0  0  0  0  0  0  0  0  0
    8.8314   -0.2227    2.6852 H   0  0  0  0  0  0  0  0  0  0  0  0
    2.8952    0.8163   -0.4393 H   0  0  0  0  0  0  0  0  0  0  0  0
    0.5578    1.5037   -0.7969 H   0  0  0  0  0  0  0  0  0  0  0  0
   -5.1903   -1.2781    1.3283 H   0  0  0  0  0  0  0  0  0  0  0  0
  1  2  1  0
  2  3  2  0
  3  4  1  0
  4  5  2  0
  4  6  1  0
  6  7  2  0
  7  8  1  0
  7  9  1  0
  9 10  1  0
 10 11  1  0
 11 12  1  0
 12 13  1  0
 13 14  1  0
 14 15  2  0
 15 16  1  0
 16 17  2  0
 17 18  1  0
 18 19  2  0
 18 20  1  0
 20 21  1  0
 21 22  1  0
 22 23  1  0
 23 24  1  0
 24 25  2  0
 24 26  1  0
 21 27  1  0
 27 28  2  0
 27 29  1  0
 17 30  1  0
 30 31  2  0
 11 32  1  0
  8  2  1  0
 31 14  1  0
 32  6  1  0
  1 33  1  0
  1 34  1  0
  8 35  1  0
  9 36  1  0
 10 37  1  0
 10 38  1  0
 11 39  1  1
 12 40  1  0
 12 41  1  0
 13 42  1  0
 15 43  1  0
 16 44  1  0
 20 45  1  0
 21 46  1  1
 22 47  1  0
 22 48  1  0
 23 49  1  0
 23 50  1  0
 26 51  1  0
 29 52  1  0
 30 53  1  0
 31 54  1  0
 32 55  1  0
M  END
$$$$

     RDKit          3D

 55 57  0  0  0  0  0  0  0  0999 V2000
   -9.7193   -0.1568    0.4652 N   0  0  0  0  0  0  0  0  0  0  0  0
   -8.3815    0.1645    0.1290 C   0  0  0  0  0  0  0  0  0  0  0  0
   -8.1283    1.2604   -0.5980 N   0  0  0  0  0  0  0  0  0  0  0  0
   -6.8784    1.6065   -0.9415 C   0  0  0  0  0  0  0  0  0  0  0  0
   -6.6022    2.6243   -1.6207 O   0  0  0  0  0  0  0  0  0  0  0  0
   -5.8385    0.7930   -0.5214 C   0  0  0  0  0  0  0  0  0  0  0  0
   -6.1155   -0.3316    0.2262 C   0  0  0  0  0  0  0  0  0  0  0  0
   -7.3952   -0.6434    0.5507 N   0  0  0  0  0  0  0  0  0  0  0  0
   -5.0230   -1.1374    0.6365 N   0  0  0  0  0  0  0  0  0  0  0  0
   -3.6729   -1.0023    0.1716 C   0  0  0  0  0  0  0  0  0  0  0  0
   -3.3471    0.4274   -0.2296 C   0  0  2  0  0  0  0  0  0  0  0  0
   -2.9738    1.1591    1.0407 C   0  0  0  0  0  0  0  0  0  0  0  0
   -1.8265    0.5415    1.6582 N   0  0  0  0  0  0  0  0  0  0  0  0
   -0.5585    0.6211    1.0385 C   0  0  0  0  0  0  0  0  0  0  0  0
    0.4859   -0.2045    1.4496 C   0  0  0  0  0  0  0  0  0  0  0  0
    1.7388   -0.1431    0.8844 C   0  0  0  0  0  0  0  0  0  0  0  0
    2.0056    0.7555   -0.1271 C   0  0  0  0  0  0  0  0  0  0  0  0
    3.3189    0.8651   -0.7650 C   0  0  0  0  0  0  0  0  0  0  0  0
    3.4182    1.7331   -1.6927 O   0  0  0  0  0  0  0  0  0  0  0  0
    4.4361    0.0671   -0.3960 N   0  0  0  0  0  0  0  0  0  0  0  0
    5.6773    0.2492   -1.0792 C   0  0  1  0  0  0  0  0  0  0  0  0
    6.8077    0.7065   -0.2581 C   0  0  0  0  0  0  0  0  0  0  0  0
    7.2600   -0.1102    0.8834 C   0  0  0  0  0  0  0  0  0  0  0  0
    7.7239   -1.4794    0.5588 C   0  0  0  0  0  0  0  0  0  0  0  0
    6.9836   -2.4948    0.5130 O   0  0  0  0  0  0  0  0  0  0  0  0
    9.0796   -1.7417    0.2689 O   0  0  0  0  0  0  0  0  0  0  0  0
    6.0132   -0.9481   -1.8922 C   0  0  0  0  0  0  0  0  0  0  0  0
    5.2017   -1.9069   -1.9059 O   0  0  0  0  0  0  0  0  0  0  0  0
    7.1696   -1.0722   -2.6378 O   0  0  0  0  0  0  0  0  0  0  0  0
    0.9691    1.5614   -0.5211 C   0  0  0  0  0  0  0  0  0  0  0  0
   -0.3084    1.5164    0.0379 C   0  0  0  0  0  0  0  0  0  0  0  0
   -4.4895    1.0761   -0.8342 N   0  0  0  0  0  0  0  0  0  0  0  0
  -10.2652   -0.9344    0.0159 H   0  0  0  0  0  0  0  0  0  0  0  0
  -10.1695    0.4307    1.2093 H   0  0  0  0  0  0  0  0  0  0  0  0
   -7.5590   -1.5012    1.1164 H   0  0  0  0  0  0  0  0  0  0  0  0
   -5.2301   -1.8952    1.3408 H   0  0  0  0  0  0  0  0  0  0  0  0
   -3.5614   -1.6542   -0.7229 H   0  0  0  0  0  0  0  0  0  0  0  0
   -2.9905   -1.3144    0.9951 H   0  0  0  0  0  0  0  0  0  0  0  0
   -2.4664    0.4242   -0.8956 H   0  0  0  0  0  0  0  0  0  0  0  0
   -3.8767    1.0737    1.7006 H   0  0  0  0  0  0  0  0  0  0  0  0
   -2.7728    2.2251    0.7854 H   0  0  0  0  0  0  0  0  0  0  0  0
   -1.9435    0.0245    2.5866 H   0  0  0  0  0  0  0  0  0  0  0  0
    0.2381   -0.9073    2.2564 H   0  0  0  0  0  0  0  0  0  0  0  0
    2.4921   -0.8140    1.2567 H   0  0  0  0  0  0  0  0  0  0  0  0
    4.2762   -0.6210    0.3720 H   0  0  0  0  0  0  0  0  0  0  0  0
    5.5097    1.0700   -1.8540 H   0  0  0  0  0  0  0  0  0  0  0  0
    7.7041    0.8501   -0.9339 H   0  0  0  0  0  0  0  0  0  0  0  0
    6.6390    1.7513    0.1388 H   0  0  0  0  0  0  0  0  0  0  0  0
    6.5573   -0.1099    1.7527 H   0  0  0  0  0  0  0  0  0  0  0  0
    8.1715    0.4196    1.3009 H   0  0  0  0  0  0  0  0  0  0  0  0
    9.3515   -2.5778   -0.2356 H   0  0  0  0  0  0  0  0  0  0  0  0
    7.1213   -1.6131   -3.4910 H   0  0  0  0  0  0  0  0  0  0  0  0
    1.1295    2.2823   -1.3109 H   0  0  0  0  0  0  0  0  0  0  0  0
   -1.0832    2.1994   -0.3191 H   0  0  0  0  0  0  0  0  0  0  0  0
   -4.3024    1.8092   -1.5566 H   0  0  0  0  0  0  0  0  0  0  0  0
  1  2  1  0
  2  3  2  0
  3  4  1  0
  4  5  2  0
  4  6  1  0
  6  7  2  0
  7  8  1  0
  7  9  1  0
  9 10  1  0
 10 11  1  0
 11 12  1  0
 12 13  1  0
 13 14  1  0
 14 15  2  0
 15 16  1  0
 16 17  2  0
 17 18  1  0
 18 19  2  0
 18 20  1  0
 20 21  1  0
 21 22  1  0
 22 23  1  0
 23 24  1  0
 24 25  2  0
 24 26  1  0
 21 27  1  0
 27 28  2  0
 27 29  1  0
 17 30  1  0
 30 31  2  0
 11 32  1  0
  8  2  1  0
 31 14  1  0
 32  6  1  0
  1 33  1  0
  1 34  1  0
  8 35  1  0
  9 36  1  0
 10 37  1  0
 10 38  1  0
 11 39  1  6
 12 40  1  0
 12 41  1  0
 13 42  1  0
 15 43  1  0
 16 44  1  0
 20 45  1  0
 21 46  1  6
 22 47  1  0
 22 48  1  0
 23 49  1  0
 23 50  1  0
 26 51  1  0
 29 52  1  0
 30 53  1  0
 31 54  1  0
 32 55  1  0
M  END
$$$$

     RDKit          3D

 55 57  0  0  0  0  0  0  0  0999 V2000
   -9.1741   -1.6072    1.3233 N   0  0  0  0  0  0  0  0  0  0  0  0
   -8.0495   -0.8413    0.9122 C   0  0  0  0  0  0  0  0  0  0  0  0
   -7.4662    0.0520    1.7279 N   0  0  0  0  0  0  0  0  0  0  0  0
   -6.4199    0.7966    1.4114 C   0  0  0  0  0  0  0  0  0  0  0  0
   -5.8854    1.6372    2.2047 O   0  0  0  0  0  0  0  0  0  0  0  0
   -5.8588    0.6711    0.1529 C   0  0  0  0  0  0  0  0  0  0  0  0
   -6.4449   -0.2376   -0.6894 C   0  0  0  0  0  0  0  0  0  0  0  0
   -7.5283   -0.9864   -0.3159 N   0  0  0  0  0  0  0  0  0  0  0  0
   -5.8934   -0.3958   -1.9957 N   0  0  0  0  0  0  0  0  0  0  0  0
   -4.4934   -0.1149   -2.1582 C   0  0  0  0  0  0  0  0  0  0  0  0
   -4.0791    1.1719   -1.5111 C   0  0  2  0  0  0  0  0  0  0  0  0
   -2.5898    1.1299   -1.2389 C   0  0  0  0  0  0  0  0  0  0  0  0
   -2.2301    0.0410   -0.3614 N   0  0  0  0  0  0  0  0  0  0  0  0
   -0.8712   -0.1338   -0.0114 C   0  0  0  0  0  0  0  0  0  0  0  0
   -0.4600   -1.1653    0.8291 C   0  0  0  0  0  0  0  0  0  0  0  0
    0.8914   -1.3149    1.1587 C   0  0  0  0  0  0  0  0  0  0  0  0
    1.8282   -0.4501    0.6603 C   0  0  0  0  0  0  0  0  0  0  0  0
    3.2171   -0.6157    1.0079 C   0  0  0  0  0  0  0  0  0  0  0  0
    3.5659   -1.5851    1.7760 O   0  0  0  0  0  0  0  0  0  0  0  0
    4.2737    0.2230    0.5643 N   0  0  0  0  0  0  0  0  0  0  0  0
    5.6688   -0.0040    0.9581 C   0  0  1  0  0  0  0  0  0  0  0  0
    6.5154   -0.3171   -0.2262 C   0  0  0  0  0  0  0  0  0  0  0  0
    7.9586   -0.5664    0.1050 C   0  0  0  0  0  0  0  0  0  0  0  0
    8.6698   -0.8867   -1.1702 C   0  0  0  0  0  0  0  0  0  0  0  0
    8.0525   -0.9117   -2.2619 O   0  0  0  0  0  0  0  0  0  0  0  0
   10.0289   -1.1637   -1.1752 O   0  0  0  0  0  0  0  0  0  0  0  0
    6.1551    1.1159    1.7904 C   0  0  0  0  0  0  0  0  0  0  0  0
    5.4002    2.1175    2.0359 O   0  0  0  0  0  0  0  0  0  0  0  0
    7.4114    1.1598    2.3441 O   0  0  0  0  0  0  0  0  0  0  0  0
    1.4290    0.5622   -0.1638 C   0  0  0  0  0  0  0  0  0  0  0  0
    0.0760    0.7263   -0.5047 C   0  0  0  0  0  0  0  0  0  0  0  0
   -4.7456    1.4288   -0.2615 N   0  0  0  0  0  0  0  0  0  0  0  0
  -10.0308   -1.7526    0.7526 H   0  0  0  0  0  0  0  0  0  0  0  0
   -9.1408   -2.0562    2.2633 H   0  0  0  0  0  0  0  0  0  0  0  0
   -7.9419   -1.6761   -1.0121 H   0  0  0  0  0  0  0  0  0  0  0  0
   -6.4968   -0.7025   -2.7802 H   0  0  0  0  0  0  0  0  0  0  0  0
   -3.9255   -0.9778   -1.7474 H   0  0  0  0  0  0  0  0  0  0  0  0
   -4.2031   -0.0699   -3.2415 H   0  0  0  0  0  0  0  0  0  0  0  0
   -4.2470    2.0085   -2.2303 H   0  0  0  0  0  0  0  0  0  0  0  0
   -2.0619    1.0732   -2.2100 H   0  0  0  0  0  0  0  0  0  0  0  0
   -2.2536    2.0734   -0.7424 H   0  0  0  0  0  0  0  0  0  0  0  0
   -2.9531   -0.5994    0.0046 H   0  0  0  0  0  0  0  0  0  0  0  0
   -1.2136   -1.8368    1.2121 H   0  0  0  0  0  0  0  0  0  0  0  0
    1.1268   -2.1387    1.8150 H   0  0  0  0  0  0  0  0  0  0  0  0
    4.0271    1.0174   -0.0588 H   0  0  0  0  0  0  0  0  0  0  0  0
    5.6623   -0.9064    1.6148 H   0  0  0  0  0  0  0  0  0  0  0  0
    6.3921    0.4124   -1.0607 H   0  0  0  0  0  0  0  0  0  0  0  0
    6.1416   -1.2873   -0.6712 H   0  0  0  0  0  0  0  0  0  0  0  0
    7.9962   -1.4277    0.8057 H   0  0  0  0  0  0  0  0  0  0  0  0
    8.4845    0.3036    0.5517 H   0  0  0  0  0  0  0  0  0  0  0  0
   10.6025   -0.9168   -1.9887 H   0  0  0  0  0  0  0  0  0  0  0  0
    7.5853    1.6804    3.2144 H   0  0  0  0  0  0  0  0  0  0  0  0
    2.1129    1.2859   -0.5972 H   0  0  0  0  0  0  0  0  0  0  0  0
   -0.2219    1.5341   -1.1588 H   0  0  0  0  0  0  0  0  0  0  0  0
   -4.3934    2.1942    0.3482 H   0  0  0  0  0  0  0  0  0  0  0  0
  1  2  1  0
  2  3  2  0
  3  4  1  0
  4  5  2  0
  4  6  1  0
  6  7  2  0
  7  8  1  0
  7  9  1  0
  9 10  1  0
 10 11  1  0
 11 12  1  0
 12 13  1  0
 13 14  1  0
 14 15  2  0
 15 16  1  0
 16 17  2  0
 17 18  1  0
 18 19  2  0
 18 20  1  0
 20 21  1  0
 21 22  1  0
 22 23  1  0
 23 24  1  0
 24 25  2  0
 24 26  1  0
 21 27  1  0
 27 28  2  0
 27 29  1  0
 17 30  1  0
 30 31  2  0
 11 32  1  0
  8  2  1  0
 31 14  1  0
 32  6  1  0
  1 33  1  0
  1 34  1  0
  8 35  1  0
  9 36  1  0
 10 37  1  0
 10 38  1  0
 11 39  1  6
 12 40  1  0
 12 41  1  0
 13 42  1  0
 15 43  1  0
 16 44  1  0
 20 45  1  0
 21 46  1  1
 22 47  1  0
 22 48  1  0
 23 49  1  0
 23 50  1  0
 26 51  1  0
 29 52  1  0
 30 53  1  0
 31 54  1  0
 32 55  1  0
M  END
$$$$

     RDKit          3D

 55 57  0  0  0  0  0  0  0  0999 V2000
   -9.8272    2.8496   -1.7535 N   0  0  0  0  0  0  0  0  0  0  0  0
   -8.4402    2.6913   -1.4339 C   0  0  0  0  0  0  0  0  0  0  0  0
   -7.9264    3.1560   -0.2803 N   0  0  0  0  0  0  0  0  0  0  0  0
   -6.6211    2.9993    0.0054 C   0  0  0  0  0  0  0  0  0  0  0  0
   -6.1343    3.4388    1.0976 O   0  0  0  0  0  0  0  0  0  0  0  0
   -5.7528    2.3609   -0.8609 C   0  0  0  0  0  0  0  0  0  0  0  0
   -6.2898    1.8864   -2.0443 C   0  0  0  0  0  0  0  0  0  0  0  0
   -7.6055    2.0678   -2.2861 N   0  0  0  0  0  0  0  0  0  0  0  0
   -5.4253    1.2288   -2.9540 N   0  0  0  0  0  0  0  0  0  0  0  0
   -4.0617    0.8438   -2.5690 C   0  0  0  0  0  0  0  0  0  0  0  0
   -3.5113    1.9531   -1.7235 C   0  0  2  0  0  0  0  0  0  0  0  0
   -2.0638    1.8095   -1.3867 C   0  0  0  0  0  0  0  0  0  0  0  0
   -1.7403    0.6154   -0.6635 N   0  0  0  0  0  0  0  0  0  0  0  0
   -0.4012    0.3982   -0.2708 C   0  0  0  0  0  0  0  0  0  0  0  0
    0.0168   -0.7728    0.3312 C   0  0  0  0  0  0  0  0  0  0  0  0
    1.3279   -0.9977    0.7266 C   0  0  0  0  0  0  0  0  0  0  0  0
    2.2522   -0.0232    0.5149 C   0  0  0  0  0  0  0  0  0  0  0  0
    3.6495   -0.2018    0.8962 C   0  0  0  0  0  0  0  0  0  0  0  0
    4.4000    0.8141    1.0310 O   0  0  0  0  0  0  0  0  0  0  0  0
    4.2012   -1.4728    1.1211 N   0  0  0  0  0  0  0  0  0  0  0  0
    5.6149   -1.6780    1.5107 C   0  0  1  0  0  0  0  0  0  0  0  0
    5.5840   -2.4370    2.7811 C   0  0  0  0  0  0  0  0  0  0  0  0
    6.8524   -2.8486    3.4030 C   0  0  0  0  0  0  0  0  0  0  0  0
    7.6373   -3.8808    2.7088 C   0  0  0  0  0  0  0  0  0  0  0  0
    7.1251   -4.5896    1.8167 O   0  0  0  0  0  0  0  0  0  0  0  0
    8.9649   -4.0682    3.0512 O   0  0  0  0  0  0  0  0  0  0  0  0
    6.3528   -2.3130    0.4401 C   0  0  0  0  0  0  0  0  0  0  0  0
    5.8254   -2.9782   -0.4771 O   0  0  0  0  0  0  0  0  0  0  0  0
    7.7652   -2.1893    0.3846 O   0  0  0  0  0  0  0  0  0  0  0  0
    1.8853    1.1798   -0.0891 C   0  0  0  0  0  0  0  0  0  0  0  0
    0.5778    1.3708   -0.4694 C   0  0  0  0  0  0  0  0  0  0  0  0
   -4.3608    2.1825   -0.5774 N   0  0  0  0  0  0  0  0  0  0  0  0
  -10.1222    2.7403   -2.7289 H   0  0  0  0  0  0  0  0  0  0  0  0
  -10.4850    3.0701   -0.9847 H   0  0  0  0  0  0  0  0  0  0  0  0
   -8.0219    1.7102   -3.1825 H   0  0  0  0  0  0  0  0  0  0  0  0
   -5.7657    1.0122   -3.9215 H   0  0  0  0  0  0  0  0  0  0  0  0
   -3.4387    0.6437   -3.4416 H   0  0  0  0  0  0  0  0  0  0  0  0
   -4.1494   -0.0531   -1.9133 H   0  0  0  0  0  0  0  0  0  0  0  0
   -3.6044    2.8860   -2.3566 H   0  0  0  0  0  0  0  0  0  0  0  0
   -1.7633    2.7097   -0.8152 H   0  0  0  0  0  0  0  0  0  0  0  0
   -1.4855    1.7828   -2.3389 H   0  0  0  0  0  0  0  0  0  0  0  0
   -2.4417   -0.1164   -0.4037 H   0  0  0  0  0  0  0  0  0  0  0  0
   -0.7028   -1.5556    0.5061 H   0  0  0  0  0  0  0  0  0  0  0  0
    1.5943   -1.9352    1.1929 H   0  0  0  0  0  0  0  0  0  0  0  0
    3.5842   -2.3198    1.0075 H   0  0  0  0  0  0  0  0  0  0  0  0
    5.9838   -0.6143    1.6632 H   0  0  0  0  0  0  0  0  0  0  0  0
    4.9157   -3.3506    2.6314 H   0  0  0  0  0  0  0  0  0  0  0  0
    5.0051   -1.8298    3.5415 H   0  0  0  0  0  0  0  0  0  0  0  0
    7.4776   -1.9095    3.5556 H   0  0  0  0  0  0  0  0  0  0  0  0
    6.6599   -3.1827    4.4557 H   0  0  0  0  0  0  0  0  0  0  0  0
    9.6479   -4.4100    2.3883 H   0  0  0  0  0  0  0  0  0  0  0  0
    8.3393   -2.8967   -0.0494 H   0  0  0  0  0  0  0  0  0  0  0  0
    2.6232    1.9495   -0.2539 H   0  0  0  0  0  0  0  0  0  0  0  0
    0.3342    2.3170   -0.9357 H   0  0  0  0  0  0  0  0  0  0  0  0
   -4.0557    2.2275    0.4029 H   0  0  0  0  0  0  0  0  0  0  0  0
  1  2  1  0
  2  3  2  0
  3  4  1  0
  4  5  2  0
  4  6  1  0
  6  7  2  0
  7  8  1  0
  7  9  1  0
  9 10  1  0
 10 11  1  0
 11 12  1  0
 12 13  1  0
 13 14  1  0
 14 15  2  0
 15 16  1  0
 16 17  2  0
 17 18  1  0
 18 19  2  0
 18 20  1  0
 20 21  1  0
 21 22  1  0
 22 23  1  0
 23 24  1  0
 24 25  2  0
 24 26  1  0
 21 27  1  0
 27 28  2  0
 27 29  1  0
 17 30  1  0
 30 31  2  0
 11 32  1  0
  8  2  1  0
 31 14  1  0
 32  6  1  0
  1 33  1  0
  1 34  1  0
  8 35  1  0
  9 36  1  0
 10 37  1  0
 10 38  1  0
 11 39  1  6
 12 40  1  0
 12 41  1  0
 13 42  1  0
 15 43  1  0
 16 44  1  0
 20 45  1  0
 21 46  1  1
 22 47  1  0
 22 48  1  0
 23 49  1  0
 23 50  1  0
 26 51  1  0
 29 52  1  0
 30 53  1  0
 31 54  1  0
 32 55  1  0
M  END
$$$$

     RDKit          3D

 55 57  0  0  0  0  0  0  0  0999 V2000
    8.6562    0.8461   -2.8030 N   0  0  0  0  0  0  0  0  0  0  0  0
    7.4362    0.5448   -2.1347 C   0  0  0  0  0  0  0  0  0  0  0  0
    6.5858   -0.3369   -2.6915 N   0  0  0  0  0  0  0  0  0  0  0  0
    5.4254   -0.6568   -2.1059 C   0  0  0  0  0  0  0  0  0  0  0  0
    4.5980   -1.4766   -2.5902 O   0  0  0  0  0  0  0  0  0  0  0  0
    5.1043   -0.0557   -0.8936 C   0  0  0  0  0  0  0  0  0  0  0  0
    6.0021    0.8379   -0.3624 C   0  0  0  0  0  0  0  0  0  0  0  0
    7.1678    1.1449   -0.9728 N   0  0  0  0  0  0  0  0  0  0  0  0
    5.6867    1.4599    0.8726 N   0  0  0  0  0  0  0  0  0  0  0  0
    4.7912    0.8260    1.7842 C   0  0  0  0  0  0  0  0  0  0  0  0
    3.6256    0.1456    1.1033 C   0  0  2  0  0  0  0  0  0  0  0  0
    3.2532   -1.0783    1.9405 C   0  0  0  0  0  0  0  0  0  0  0  0
    2.1473   -1.7693    1.3417 N   0  0  0  0  0  0  0  0  0  0  0  0
    0.8607   -1.2117    1.2890 C   0  0  0  0  0  0  0  0  0  0  0  0
   -0.1121   -1.8391    0.5101 C   0  0  0  0  0  0  0  0  0  0  0  0
   -1.4043   -1.3940    0.3925 C   0  0  0  0  0  0  0  0  0  0  0  0
   -1.7991   -0.2627    1.0709 C   0  0  0  0  0  0  0  0  0  0  0  0
   -3.1505    0.2874    1.0102 C   0  0  0  0  0  0  0  0  0  0  0  0
   -3.4157    1.4361    1.4703 O   0  0  0  0  0  0  0  0  0  0  0  0
   -4.2272   -0.4305    0.4381 N   0  0  0  0  0  0  0  0  0  0  0  0
   -5.5744    0.1263    0.3777 C   0  0  1  0  0  0  0  0  0  0  0  0
   -5.9918    0.2379   -1.0556 C   0  0  0  0  0  0  0  0  0  0  0  0
   -7.3607    0.8000   -1.2831 C   0  0  0  0  0  0  0  0  0  0  0  0
   -7.6050    0.8472   -2.7610 C   0  0  0  0  0  0  0  0  0  0  0  0
   -6.7361    0.4524   -3.5528 O   0  0  0  0  0  0  0  0  0  0  0  0
   -8.8294    1.3444   -3.2184 O   0  0  0  0  0  0  0  0  0  0  0  0
   -6.5006   -0.6194    1.2494 C   0  0  0  0  0  0  0  0  0  0  0  0
   -6.0671   -1.6230    1.9102 O   0  0  0  0  0  0  0  0  0  0  0  0
   -7.8374   -0.3358    1.4358 O   0  0  0  0  0  0  0  0  0  0  0  0
   -0.8367    0.3735    1.8529 C   0  0  0  0  0  0  0  0  0  0  0  0
    0.4552   -0.0835    1.9620 C   0  0  0  0  0  0  0  0  0  0  0  0
    3.9095   -0.3356   -0.2168 N   0  0  0  0  0  0  0  0  0  0  0  0
    9.2723    0.0682   -3.0865 H   0  0  0  0  0  0  0  0  0  0  0  0
    8.8587    1.8549   -2.9702 H   0  0  0  0  0  0  0  0  0  0  0  0
    7.8485    1.8354   -0.5476 H   0  0  0  0  0  0  0  0  0  0  0  0
    6.1210    2.3935    1.1082 H   0  0  0  0  0  0  0  0  0  0  0  0
    4.4225    1.6080    2.5055 H   0  0  0  0  0  0  0  0  0  0  0  0
    5.3554    0.1179    2.4187 H   0  0  0  0  0  0  0  0  0  0  0  0
    2.8317    0.8873    1.0246 H   0  0  0  0  0  0  0  0  0  0  0  0
    3.0592   -0.8094    3.0017 H   0  0  0  0  0  0  0  0  0  0  0  0
    4.1719   -1.7348    1.9154 H   0  0  0  0  0  0  0  0  0  0  0  0
    2.3138   -2.7248    0.9323 H   0  0  0  0  0  0  0  0  0  0  0  0
    0.1309   -2.7386   -0.0533 H   0  0  0  0  0  0  0  0  0  0  0  0
   -2.1366   -1.9205   -0.2338 H   0  0  0  0  0  0  0  0  0  0  0  0
   -4.0607   -1.3882    0.0472 H   0  0  0  0  0  0  0  0  0  0  0  0
   -5.5120    1.1520    0.7996 H   0  0  0  0  0  0  0  0  0  0  0  0
   -5.8059   -0.6851   -1.6422 H   0  0  0  0  0  0  0  0  0  0  0  0
   -5.2784    0.9894   -1.5137 H   0  0  0  0  0  0  0  0  0  0  0  0
   -8.1068    0.1556   -0.7811 H   0  0  0  0  0  0  0  0  0  0  0  0
   -7.4607    1.8364   -0.8897 H   0  0  0  0  0  0  0  0  0  0  0  0
   -9.2331    0.9452   -4.0597 H   0  0  0  0  0  0  0  0  0  0  0  0
   -8.2563   -0.4172    2.3752 H   0  0  0  0  0  0  0  0  0  0  0  0
   -1.1604    1.2533    2.3746 H   0  0  0  0  0  0  0  0  0  0  0  0
    1.1662    0.4386    2.5921 H   0  0  0  0  0  0  0  0  0  0  0  0
    3.2017   -0.9125   -0.6871 H   0  0  0  0  0  0  0  0  0  0  0  0
  1  2  1  0
  2  3  2  0
  3  4  1  0
  4  5  2  0
  4  6  1  0
  6  7  2  0
  7  8  1  0
  7  9  1  0
  9 10  1  0
 10 11  1  0
 11 12  1  0
 12 13  1  0
 13 14  1  0
 14 15  2  0
 15 16  1  0
 16 17  2  0
 17 18  1  0
 18 19  2  0
 18 20  1  0
 20 21  1  0
 21 22  1  0
 22 23  1  0
 23 24  1  0
 24 25  2  0
 24 26  1  0
 21 27  1  0
 27 28  2  0
 27 29  1  0
 17 30  1  0
 30 31  2  0
 11 32  1  0
  8  2  1  0
 31 14  1  0
 32  6  1  0
  1 33  1  0
  1 34  1  0
  8 35  1  0
  9 36  1  0
 10 37  1  0
 10 38  1  0
 11 39  1  6
 12 40  1  0
 12 41  1  0
 13 42  1  0
 15 43  1  0
 16 44  1  0
 20 45  1  0
 21 46  1  1
 22 47  1  0
 22 48  1  0
 23 49  1  0
 23 50  1  0
 26 51  1  0
 29 52  1  0
 30 53  1  0
 31 54  1  0
 32 55  1  0
M  END
$$$$

     RDKit          3D

 55 57  0  0  0  0  0  0  0  0999 V2000
    7.6664   -0.2468    2.8667 N   0  0  0  0  0  0  0  0  0  0  0  0
    6.8345   -0.4378    1.7109 C   0  0  0  0  0  0  0  0  0  0  0  0
    6.1923   -1.5935    1.5830 N   0  0  0  0  0  0  0  0  0  0  0  0
    5.3955   -1.8578    0.5361 C   0  0  0  0  0  0  0  0  0  0  0  0
    4.7772   -2.9523    0.3997 O   0  0  0  0  0  0  0  0  0  0  0  0
    5.2687   -0.8639   -0.4175 C   0  0  0  0  0  0  0  0  0  0  0  0
    5.9395    0.3224   -0.2681 C   0  0  0  0  0  0  0  0  0  0  0  0
    6.7386    0.5490    0.8109 N   0  0  0  0  0  0  0  0  0  0  0  0
    5.7993    1.3346   -1.2568 N   0  0  0  0  0  0  0  0  0  0  0  0
    5.0059    1.1722   -2.4355 C   0  0  0  0  0  0  0  0  0  0  0  0
    3.9760    0.0770   -2.3068 C   0  0  2  0  0  0  0  0  0  0  0  0
    2.7461    0.6236   -1.6170 C   0  0  0  0  0  0  0  0  0  0  0  0
    1.7785   -0.4325   -1.5038 N   0  0  0  0  0  0  0  0  0  0  0  0
    0.5377   -0.1837   -0.8956 C   0  0  0  0  0  0  0  0  0  0  0  0
    0.2300    1.0739   -0.4026 C   0  0  0  0  0  0  0  0  0  0  0  0
   -0.9752    1.3116    0.1875 C   0  0  0  0  0  0  0  0  0  0  0  0
   -1.9140    0.2978    0.3044 C   0  0  0  0  0  0  0  0  0  0  0  0
   -3.2003    0.5492    0.9363 C   0  0  0  0  0  0  0  0  0  0  0  0
   -3.4041    1.6853    1.4317 O   0  0  0  0  0  0  0  0  0  0  0  0
   -4.2052   -0.4184    1.0100 N   0  0  0  0  0  0  0  0  0  0  0  0
   -5.5056   -0.1432    1.6573 C   0  0  1  0  0  0  0  0  0  0  0  0
   -6.6180   -0.2885    0.6449 C   0  0  0  0  0  0  0  0  0  0  0  0
   -6.3995    0.6927   -0.4819 C   0  0  0  0  0  0  0  0  0  0  0  0
   -7.4515    0.6071   -1.5106 C   0  0  0  0  0  0  0  0  0  0  0  0
   -8.4155   -0.2235   -1.4061 O   0  0  0  0  0  0  0  0  0  0  0  0
   -7.3762    1.4483   -2.5996 O   0  0  0  0  0  0  0  0  0  0  0  0
   -5.6498   -1.1071    2.7774 C   0  0  0  0  0  0  0  0  0  0  0  0
   -4.7627   -1.9655    3.0421 O   0  0  0  0  0  0  0  0  0  0  0  0
   -6.7776   -1.1019    3.5862 O   0  0  0  0  0  0  0  0  0  0  0  0
   -1.6217   -0.9514   -0.1794 C   0  0  0  0  0  0  0  0  0  0  0  0
   -0.3964   -1.1884   -0.7782 C   0  0  0  0  0  0  0  0  0  0  0  0
    4.4547   -1.0589   -1.5461 N   0  0  0  0  0  0  0  0  0  0  0  0
    8.6027    0.1693    2.7135 H   0  0  0  0  0  0  0  0  0  0  0  0
    7.3664   -0.5060    3.8266 H   0  0  0  0  0  0  0  0  0  0  0  0
    7.2447    1.4556    0.9153 H   0  0  0  0  0  0  0  0  0  0  0  0
    6.3028    2.2362   -1.1081 H   0  0  0  0  0  0  0  0  0  0  0  0
    5.6523    0.9229   -3.3128 H   0  0  0  0  0  0  0  0  0  0  0  0
    4.4733    2.1103   -2.6470 H   0  0  0  0  0  0  0  0  0  0  0  0
    3.7484   -0.2843   -3.3294 H   0  0  0  0  0  0  0  0  0  0  0  0
    2.9553    1.0084   -0.6170 H   0  0  0  0  0  0  0  0  0  0  0  0
    2.3269    1.4819   -2.2015 H   0  0  0  0  0  0  0  0  0  0  0  0
    1.9986   -1.3708   -1.8702 H   0  0  0  0  0  0  0  0  0  0  0  0
    0.9368    1.8975   -0.4736 H   0  0  0  0  0  0  0  0  0  0  0  0
   -1.2544    2.2947    0.5899 H   0  0  0  0  0  0  0  0  0  0  0  0
   -4.0636   -1.3570    0.6094 H   0  0  0  0  0  0  0  0  0  0  0  0
   -5.5147    0.8980    2.0305 H   0  0  0  0  0  0  0  0  0  0  0  0
   -7.6024   -0.1301    1.1066 H   0  0  0  0  0  0  0  0  0  0  0  0
   -6.5453   -1.3115    0.1713 H   0  0  0  0  0  0  0  0  0  0  0  0
   -6.4181    1.7148   -0.0287 H   0  0  0  0  0  0  0  0  0  0  0  0
   -5.3813    0.5573   -0.8963 H   0  0  0  0  0  0  0  0  0  0  0  0
   -8.1049    1.4395   -3.3168 H   0  0  0  0  0  0  0  0  0  0  0  0
   -7.1334   -1.9510    4.0478 H   0  0  0  0  0  0  0  0  0  0  0  0
   -2.3116   -1.8014   -0.1220 H   0  0  0  0  0  0  0  0  0  0  0  0
   -0.1441   -2.1842   -1.1725 H   0  0  0  0  0  0  0  0  0  0  0  0
    4.1981   -2.0197   -1.8320 H   0  0  0  0  0  0  0  0  0  0  0  0
  1  2  1  0
  2  3  2  0
  3  4  1  0
  4  5  2  0
  4  6  1  0
  6  7  2  0
  7  8  1  0
  7  9  1  0
  9 10  1  0
 10 11  1  0
 11 12  1  0
 12 13  1  0
 13 14  1  0
 14 15  2  0
 15 16  1  0
 16 17  2  0
 17 18  1  0
 18 19  2  0
 18 20  1  0
 20 21  1  0
 21 22  1  0
 22 23  1  0
 23 24  1  0
 24 25  2  0
 24 26  1  0
 21 27  1  0
 27 28  2  0
 27 29  1  0
 17 30  1  0
 30 31  2  0
 11 32  1  0
  8  2  1  0
 31 14  1  0
 32  6  1  0
  1 33  1  0
  1 34  1  0
  8 35  1  0
  9 36  1  0
 10 37  1  0
 10 38  1  0
 11 39  1  6
 12 40  1  0
 12 41  1  0
 13 42  1  0
 15 43  1  0
 16 44  1  0
 20 45  1  0
 21 46  1  1
 22 47  1  0
 22 48  1  0
 23 49  1  0
 23 50  1  0
 26 51  1  0
 29 52  1  0
 30 53  1  0
 31 54  1  0
 32 55  1  0
M  END
$$$$

     RDKit          3D

 55 57  0  0  0  0  0  0  0  0999 V2000
    8.6499    2.4881   -0.3277 N   0  0  0  0  0  0  0  0  0  0  0  0
    7.6265    1.5856    0.0777 C   0  0  0  0  0  0  0  0  0  0  0  0
    6.8151    1.8014    1.1236 N   0  0  0  0  0  0  0  0  0  0  0  0
    5.8558    0.9432    1.4924 C   0  0  0  0  0  0  0  0  0  0  0  0
    5.0846    1.1221    2.4659 O   0  0  0  0  0  0  0  0  0  0  0  0
    5.7069   -0.2141    0.7514 C   0  0  0  0  0  0  0  0  0  0  0  0
    6.5540   -0.4148   -0.3217 C   0  0  0  0  0  0  0  0  0  0  0  0
    7.4960    0.4681   -0.6523 N   0  0  0  0  0  0  0  0  0  0  0  0
    6.3647   -1.6124   -1.0564 N   0  0  0  0  0  0  0  0  0  0  0  0
    5.1153   -2.3165   -1.1198 C   0  0  0  0  0  0  0  0  0  0  0  0
    4.2238   -2.1159    0.0605 C   0  0  2  0  0  0  0  0  0  0  0  0
    2.9032   -1.5545   -0.4226 C   0  0  0  0  0  0  0  0  0  0  0  0
    1.9756   -1.3439    0.6576 N   0  0  0  0  0  0  0  0  0  0  0  0
    0.6830   -0.8215    0.4277 C   0  0  0  0  0  0  0  0  0  0  0  0
    0.3248   -0.3394   -0.8155 C   0  0  0  0  0  0  0  0  0  0  0  0
   -0.9572    0.1531   -1.0389 C   0  0  0  0  0  0  0  0  0  0  0  0
   -1.9113    0.1792   -0.0397 C   0  0  0  0  0  0  0  0  0  0  0  0
   -3.2372    0.7071   -0.3303 C   0  0  0  0  0  0  0  0  0  0  0  0
   -3.3882    1.4344   -1.3516 O   0  0  0  0  0  0  0  0  0  0  0  0
   -4.3543    0.4495    0.4633 N   0  0  0  0  0  0  0  0  0  0  0  0
   -5.7146    0.9765    0.1885 C   0  0  1  0  0  0  0  0  0  0  0  0
   -6.5896   -0.1314   -0.2458 C   0  0  0  0  0  0  0  0  0  0  0  0
   -7.9966    0.2545   -0.5082 C   0  0  0  0  0  0  0  0  0  0  0  0
   -8.7013    0.6307    0.7281 C   0  0  0  0  0  0  0  0  0  0  0  0
   -9.7470    1.3392    0.7083 O   0  0  0  0  0  0  0  0  0  0  0  0
   -8.2013    0.1856    1.9582 O   0  0  0  0  0  0  0  0  0  0  0  0
   -6.1120    1.8891    1.2194 C   0  0  0  0  0  0  0  0  0  0  0  0
   -5.4766    1.8950    2.3323 O   0  0  0  0  0  0  0  0  0  0  0  0
   -7.1405    2.8079    1.1411 O   0  0  0  0  0  0  0  0  0  0  0  0
   -1.5348   -0.3073    1.1985 C   0  0  0  0  0  0  0  0  0  0  0  0
   -0.2482   -0.8035    1.4305 C   0  0  0  0  0  0  0  0  0  0  0  0
    4.7385   -1.1928    1.0395 N   0  0  0  0  0  0  0  0  0  0  0  0
    9.6117    2.3771    0.0725 H   0  0  0  0  0  0  0  0  0  0  0  0
    8.4049    3.2315   -1.0112 H   0  0  0  0  0  0  0  0  0  0  0  0
    8.1182    0.2831   -1.4697 H   0  0  0  0  0  0  0  0  0  0  0  0
    7.1751   -1.9997   -1.5776 H   0  0  0  0  0  0  0  0  0  0  0  0
    5.2674   -3.4150   -1.2401 H   0  0  0  0  0  0  0  0  0  0  0  0
    4.6122   -1.9913   -2.0750 H   0  0  0  0  0  0  0  0  0  0  0  0
    3.9602   -3.0892    0.5628 H   0  0  0  0  0  0  0  0  0  0  0  0
    3.0100   -0.6333   -0.9983 H   0  0  0  0  0  0  0  0  0  0  0  0
    2.4834   -2.3149   -1.1316 H   0  0  0  0  0  0  0  0  0  0  0  0
    2.2663   -1.5813    1.6242 H   0  0  0  0  0  0  0  0  0  0  0  0
    1.0716   -0.3646   -1.5778 H   0  0  0  0  0  0  0  0  0  0  0  0
   -1.2199    0.5249   -2.0092 H   0  0  0  0  0  0  0  0  0  0  0  0
   -4.2737   -0.1448    1.3083 H   0  0  0  0  0  0  0  0  0  0  0  0
   -5.5225    1.5948   -0.7647 H   0  0  0  0  0  0  0  0  0  0  0  0
   -6.6155   -0.9765    0.5064 H   0  0  0  0  0  0  0  0  0  0  0  0
   -6.1701   -0.5719   -1.2136 H   0  0  0  0  0  0  0  0  0  0  0  0
   -8.0142    1.1070   -1.2574 H   0  0  0  0  0  0  0  0  0  0  0  0
   -8.5104   -0.5860   -1.0427 H   0  0  0  0  0  0  0  0  0  0  0  0
   -8.8570   -0.0070    2.7126 H   0  0  0  0  0  0  0  0  0  0  0  0
   -7.6333    3.1109    1.9666 H   0  0  0  0  0  0  0  0  0  0  0  0
   -2.2803   -0.2877    1.9794 H   0  0  0  0  0  0  0  0  0  0  0  0
   -0.0647   -1.1559    2.4324 H   0  0  0  0  0  0  0  0  0  0  0  0
    4.3738   -1.2527    2.0107 H   0  0  0  0  0  0  0  0  0  0  0  0
  1  2  1  0
  2  3  2  0
  3  4  1  0
  4  5  2  0
  4  6  1  0
  6  7  2  0
  7  8  1  0
  7  9  1  0
  9 10  1  0
 10 11  1  0
 11 12  1  0
 12 13  1  0
 13 14  1  0
 14 15  2  0
 15 16  1  0
 16 17  2  0
 17 18  1  0
 18 19  2  0
 18 20  1  0
 20 21  1  0
 21 22  1  0
 22 23  1  0
 23 24  1  0
 24 25  2  0
 24 26  1  0
 21 27  1  0
 27 28  2  0
 27 29  1  0
 17 30  1  0
 30 31  2  0
 11 32  1  0
  8  2  1  0
 31 14  1  0
 32  6  1  0
  1 33  1  0
  1 34  1  0
  8 35  1  0
  9 36  1  0
 10 37  1  0
 10 38  1  0
 11 39  1  1
 12 40  1  0
 12 41  1  0
 13 42  1  0
 15 43  1  0
 16 44  1  0
 20 45  1  0
 21 46  1  6
 22 47  1  0
 22 48  1  0
 23 49  1  0
 23 50  1  0
 26 51  1  0
 29 52  1  0
 30 53  1  0
 31 54  1  0
 32 55  1  0
M  END
$$$$

     RDKit          3D

 55 57  0  0  0  0  0  0  0  0999 V2000
   10.0530    0.4256   -0.4615 N   0  0  0  0  0  0  0  0  0  0  0  0
    8.6340    0.3774   -0.5959 C   0  0  0  0  0  0  0  0  0  0  0  0
    8.0436    0.3960   -1.8203 N   0  0  0  0  0  0  0  0  0  0  0  0
    6.7025    0.3504   -1.8935 C   0  0  0  0  0  0  0  0  0  0  0  0
    6.1082    0.3647   -3.0210 O   0  0  0  0  0  0  0  0  0  0  0  0
    5.9263    0.2863   -0.7796 C   0  0  0  0  0  0  0  0  0  0  0  0
    6.5556    0.2681    0.4582 C   0  0  0  0  0  0  0  0  0  0  0  0
    7.9214    0.3147    0.5421 N   0  0  0  0  0  0  0  0  0  0  0  0
    5.7579    0.1981    1.6365 N   0  0  0  0  0  0  0  0  0  0  0  0
    4.3389   -0.0540    1.5416 C   0  0  0  0  0  0  0  0  0  0  0  0
    3.8068    0.7242    0.3569 C   0  0  2  0  0  0  0  0  0  0  0  0
    2.3111    0.6526    0.2533 C   0  0  0  0  0  0  0  0  0  0  0  0
    1.7936   -0.6572    0.0989 N   0  0  0  0  0  0  0  0  0  0  0  0
    0.4043   -0.8716    0.0130 C   0  0  0  0  0  0  0  0  0  0  0  0
   -0.5092    0.1547    0.0701 C   0  0  0  0  0  0  0  0  0  0  0  0
   -1.8686   -0.0502   -0.0082 C   0  0  0  0  0  0  0  0  0  0  0  0
   -2.3785   -1.3184   -0.1491 C   0  0  0  0  0  0  0  0  0  0  0  0
   -3.7918   -1.6036   -0.2349 C   0  0  0  0  0  0  0  0  0  0  0  0
   -4.1874   -2.7966   -0.1214 O   0  0  0  0  0  0  0  0  0  0  0  0
   -4.7406   -0.5863   -0.4429 N   0  0  0  0  0  0  0  0  0  0  0  0
   -6.1661   -0.9309   -0.5182 C   0  0  1  0  0  0  0  0  0  0  0  0
   -6.8509   -0.1946    0.6187 C   0  0  0  0  0  0  0  0  0  0  0  0
   -6.7040    1.3011    0.4994 C   0  0  0  0  0  0  0  0  0  0  0  0
   -7.4014    1.9078    1.6667 C   0  0  0  0  0  0  0  0  0  0  0  0
   -7.1567    1.5824    2.8373 O   0  0  0  0  0  0  0  0  0  0  0  0
   -8.3732    2.8818    1.4036 O   0  0  0  0  0  0  0  0  0  0  0  0
   -6.6561   -0.4797   -1.8326 C   0  0  0  0  0  0  0  0  0  0  0  0
   -5.8900    0.0920   -2.6375 O   0  0  0  0  0  0  0  0  0  0  0  0
   -7.9755   -0.6793   -2.2063 O   0  0  0  0  0  0  0  0  0  0  0  0
   -1.4716   -2.3820   -0.2107 C   0  0  0  0  0  0  0  0  0  0  0  0
   -0.1271   -2.1426   -0.1299 C   0  0  0  0  0  0  0  0  0  0  0  0
    4.4867    0.2394   -0.8153 N   0  0  0  0  0  0  0  0  0  0  0  0
   10.5486   -0.4987   -0.5165 H   0  0  0  0  0  0  0  0  0  0  0  0
   10.5903    1.3246   -0.3175 H   0  0  0  0  0  0  0  0  0  0  0  0
    8.3610    0.2980    1.4990 H   0  0  0  0  0  0  0  0  0  0  0  0
    6.2169    0.3317    2.5729 H   0  0  0  0  0  0  0  0  0  0  0  0
    3.8327    0.2847    2.4817 H   0  0  0  0  0  0  0  0  0  0  0  0
    4.0890   -1.1317    1.3785 H   0  0  0  0  0  0  0  0  0  0  0  0
    4.1400    1.7717    0.5215 H   0  0  0  0  0  0  0  0  0  0  0  0
    1.9119    1.1656    1.1686 H   0  0  0  0  0  0  0  0  0  0  0  0
    2.0196    1.3224   -0.5941 H   0  0  0  0  0  0  0  0  0  0  0  0
    2.4293   -1.4724    0.0484 H   0  0  0  0  0  0  0  0  0  0  0  0
   -0.1133    1.1769    0.1839 H   0  0  0  0  0  0  0  0  0  0  0  0
   -2.5522    0.7761    0.0440 H   0  0  0  0  0  0  0  0  0  0  0  0
   -4.4296    0.3925   -0.5463 H   0  0  0  0  0  0  0  0  0  0  0  0
   -6.2665   -2.0036   -0.4006 H   0  0  0  0  0  0  0  0  0  0  0  0
   -7.9015   -0.5029    0.6636 H   0  0  0  0  0  0  0  0  0  0  0  0
   -6.3403   -0.5225    1.5384 H   0  0  0  0  0  0  0  0  0  0  0  0
   -5.6350    1.6071    0.5529 H   0  0  0  0  0  0  0  0  0  0  0  0
   -7.1081    1.6975   -0.4491 H   0  0  0  0  0  0  0  0  0  0  0  0
   -8.8883    3.3182    2.1782 H   0  0  0  0  0  0  0  0  0  0  0  0
   -8.2305   -0.5420   -3.1707 H   0  0  0  0  0  0  0  0  0  0  0  0
   -1.8632   -3.4035   -0.3239 H   0  0  0  0  0  0  0  0  0  0  0  0
    0.5315   -3.0229   -0.1860 H   0  0  0  0  0  0  0  0  0  0  0  0
    4.0625   -0.1370   -1.6766 H   0  0  0  0  0  0  0  0  0  0  0  0
  1  2  1  0
  2  3  2  0
  3  4  1  0
  4  5  2  0
  4  6  1  0
  6  7  2  0
  7  8  1  0
  7  9  1  0
  9 10  1  0
 10 11  1  0
 11 12  1  0
 12 13  1  0
 13 14  1  0
 14 15  2  0
 15 16  1  0
 16 17  2  0
 17 18  1  0
 18 19  2  0
 18 20  1  0
 20 21  1  0
 21 22  1  0
 22 23  1  0
 23 24  1  0
 24 25  2  0
 24 26  1  0
 21 27  1  0
 27 28  2  0
 27 29  1  0
 17 30  1  0
 30 31  2  0
 11 32  1  0
  8  2  1  0
 31 14  1  0
 32  6  1  0
  1 33  1  0
  1 34  1  0
  8 35  1  0
  9 36  1  0
 10 37  1  0
 10 38  1  0
 11 39  1  1
 12 40  1  0
 12 41  1  0
 13 42  1  0
 15 43  1  0
 16 44  1  0
 20 45  1  0
 21 46  1  1
 22 47  1  0
 22 48  1  0
 23 49  1  0
 23 50  1  0
 26 51  1  0
 29 52  1  0
 30 53  1  0
 31 54  1  0
 32 55  1  0
M  END
$$$$

     RDKit          3D

 55 57  0  0  0  0  0  0  0  0999 V2000
    9.9439   -0.1386   -1.9351 N   0  0  0  0  0  0  0  0  0  0  0  0
    8.5671   -0.2513   -1.5227 C   0  0  0  0  0  0  0  0  0  0  0  0
    7.6491   -0.8466   -2.3055 N   0  0  0  0  0  0  0  0  0  0  0  0
    6.3617   -0.9345   -1.8848 C   0  0  0  0  0  0  0  0  0  0  0  0
    5.4700   -1.4906   -2.5999 O   0  0  0  0  0  0  0  0  0  0  0  0
    5.9548   -0.4290   -0.6677 C   0  0  0  0  0  0  0  0  0  0  0  0
    6.9272    0.1781    0.1135 C   0  0  0  0  0  0  0  0  0  0  0  0
    8.2054    0.2531   -0.3292 N   0  0  0  0  0  0  0  0  0  0  0  0
    6.5144    0.7003    1.3672 N   0  0  0  0  0  0  0  0  0  0  0  0
    5.1976    0.4619    1.9329 C   0  0  0  0  0  0  0  0  0  0  0  0
    4.2066    0.4611    0.8080 C   0  0  2  0  0  0  0  0  0  0  0  0
    2.7974    0.2483    1.2455 C   0  0  0  0  0  0  0  0  0  0  0  0
    1.9306    0.2644    0.0988 N   0  0  0  0  0  0  0  0  0  0  0  0
    0.5330    0.0796    0.2779 C   0  0  0  0  0  0  0  0  0  0  0  0
   -0.3319    0.0894   -0.8136 C   0  0  0  0  0  0  0  0  0  0  0  0
   -1.6817   -0.0898   -0.6346 C   0  0  0  0  0  0  0  0  0  0  0  0
   -2.1901   -0.2812    0.6333 C   0  0  0  0  0  0  0  0  0  0  0  0
   -3.6237   -0.4763    0.8686 C   0  0  0  0  0  0  0  0  0  0  0  0
   -4.0092   -0.6388    2.0537 O   0  0  0  0  0  0  0  0  0  0  0  0
   -4.6010   -0.4949   -0.1364 N   0  0  0  0  0  0  0  0  0  0  0  0
   -6.0298   -0.6945    0.1514 C   0  0  1  0  0  0  0  0  0  0  0  0
   -6.7214    0.5644   -0.2560 C   0  0  0  0  0  0  0  0  0  0  0  0
   -8.2048    0.5643   -0.0392 C   0  0  0  0  0  0  0  0  0  0  0  0
   -8.7556    1.8628   -0.4791 C   0  0  0  0  0  0  0  0  0  0  0  0
   -7.9817    2.7297   -0.9405 O   0  0  0  0  0  0  0  0  0  0  0  0
  -10.1029    2.1541   -0.3981 O   0  0  0  0  0  0  0  0  0  0  0  0
   -6.5219   -1.9123   -0.5317 C   0  0  0  0  0  0  0  0  0  0  0  0
   -5.7272   -2.5884   -1.2368 O   0  0  0  0  0  0  0  0  0  0  0  0
   -7.8262   -2.3651   -0.4432 O   0  0  0  0  0  0  0  0  0  0  0  0
   -1.3227   -0.2878    1.6975 C   0  0  0  0  0  0  0  0  0  0  0  0
    0.0239   -0.1116    1.5435 C   0  0  0  0  0  0  0  0  0  0  0  0
    4.6174   -0.5033   -0.1963 N   0  0  0  0  0  0  0  0  0  0  0  0
   10.3352    0.8009   -2.2139 H   0  0  0  0  0  0  0  0  0  0  0  0
   10.5673   -0.9504   -1.9684 H   0  0  0  0  0  0  0  0  0  0  0  0
    8.9324    0.7192    0.2796 H   0  0  0  0  0  0  0  0  0  0  0  0
    7.2179    1.2864    1.8919 H   0  0  0  0  0  0  0  0  0  0  0  0
    5.1619   -0.5328    2.4231 H   0  0  0  0  0  0  0  0  0  0  0  0
    4.9612    1.2581    2.6641 H   0  0  0  0  0  0  0  0  0  0  0  0
    4.2648    1.4598    0.3161 H   0  0  0  0  0  0  0  0  0  0  0  0
    2.6606   -0.6886    1.8216 H   0  0  0  0  0  0  0  0  0  0  0  0
    2.5244    1.1230    1.9036 H   0  0  0  0  0  0  0  0  0  0  0  0
    2.3046    0.4077   -0.8536 H   0  0  0  0  0  0  0  0  0  0  0  0
    0.0772    0.2411   -1.8124 H   0  0  0  0  0  0  0  0  0  0  0  0
   -2.3497   -0.0828   -1.4733 H   0  0  0  0  0  0  0  0  0  0  0  0
   -4.3236   -0.3647   -1.1251 H   0  0  0  0  0  0  0  0  0  0  0  0
   -6.1066   -0.8091    1.2495 H   0  0  0  0  0  0  0  0  0  0  0  0
   -6.5126    0.8484   -1.3116 H   0  0  0  0  0  0  0  0  0  0  0  0
   -6.2933    1.3848    0.3602 H   0  0  0  0  0  0  0  0  0  0  0  0
   -8.7297   -0.2313   -0.6085 H   0  0  0  0  0  0  0  0  0  0  0  0
   -8.4251    0.3932    1.0523 H   0  0  0  0  0  0  0  0  0  0  0  0
  -10.5707    2.8286   -1.0023 H   0  0  0  0  0  0  0  0  0  0  0  0
   -7.9684   -3.3721   -0.3968 H   0  0  0  0  0  0  0  0  0  0  0  0
   -1.7095   -0.4397    2.7220 H   0  0  0  0  0  0  0  0  0  0  0  0
    0.7128   -0.1189    2.4092 H   0  0  0  0  0  0  0  0  0  0  0  0
    4.0010   -1.2382   -0.5891 H   0  0  0  0  0  0  0  0  0  0  0  0
  1  2  1  0
  2  3  2  0
  3  4  1  0
  4  5  2  0
  4  6  1  0
  6  7  2  0
  7  8  1  0
  7  9  1  0
  9 10  1  0
 10 11  1  0
 11 12  1  0
 12 13  1  0
 13 14  1  0
 14 15  2  0
 15 16  1  0
 16 17  2  0
 17 18  1  0
 18 19  2  0
 18 20  1  0
 20 21  1  0
 21 22  1  0
 22 23  1  0
 23 24  1  0
 24 25  2  0
 24 26  1  0
 21 27  1  0
 27 28  2  0
 27 29  1  0
 17 30  1  0
 30 31  2  0
 11 32  1  0
  8  2  1  0
 31 14  1  0
 32  6  1  0
  1 33  1  0
  1 34  1  0
  8 35  1  0
  9 36  1  0
 10 37  1  0
 10 38  1  0
 11 39  1  6
 12 40  1  0
 12 41  1  0
 13 42  1  0
 15 43  1  0
 16 44  1  0
 20 45  1  0
 21 46  1  1
 22 47  1  0
 22 48  1  0
 23 49  1  0
 23 50  1  0
 26 51  1  0
 29 52  1  0
 30 53  1  0
 31 54  1  0
 32 55  1  0
M  END
$$$$

     RDKit          3D

 55 57  0  0  0  0  0  0  0  0999 V2000
    8.5181    0.9689   -2.4002 N   0  0  0  0  0  0  0  0  0  0  0  0
    7.6104    0.3651   -1.4878 C   0  0  0  0  0  0  0  0  0  0  0  0
    7.7396   -0.9443   -1.1936 N   0  0  0  0  0  0  0  0  0  0  0  0
    6.8798   -1.5133   -0.3304 C   0  0  0  0  0  0  0  0  0  0  0  0
    6.9636   -2.7450   -0.0234 O   0  0  0  0  0  0  0  0  0  0  0  0
    5.8524   -0.8169    0.2830 C   0  0  0  0  0  0  0  0  0  0  0  0
    5.7546    0.5244   -0.0460 C   0  0  0  0  0  0  0  0  0  0  0  0
    6.6128    1.0952   -0.9086 N   0  0  0  0  0  0  0  0  0  0  0  0
    4.6968    1.2546    0.5820 N   0  0  0  0  0  0  0  0  0  0  0  0
    4.0191    0.7054    1.7569 C   0  0  0  0  0  0  0  0  0  0  0  0
    3.7019   -0.7402    1.4368 C   0  0  2  0  0  0  0  0  0  0  0  0
    2.8931   -1.3906    2.5262 C   0  0  0  0  0  0  0  0  0  0  0  0
    1.6325   -0.7858    2.7903 N   0  0  0  0  0  0  0  0  0  0  0  0
    0.5535   -0.7784    1.8821 C   0  0  0  0  0  0  0  0  0  0  0  0
   -0.5440    0.0269    2.1630 C   0  0  0  0  0  0  0  0  0  0  0  0
   -1.6552    0.0992    1.3503 C   0  0  0  0  0  0  0  0  0  0  0  0
   -1.7044   -0.6538    0.1977 C   0  0  0  0  0  0  0  0  0  0  0  0
   -2.8751   -0.6078   -0.7053 C   0  0  0  0  0  0  0  0  0  0  0  0
   -2.8647   -1.3317   -1.7304 O   0  0  0  0  0  0  0  0  0  0  0  0
   -3.9836    0.2048   -0.4625 N   0  0  0  0  0  0  0  0  0  0  0  0
   -5.1082    0.2033   -1.3956 C   0  0  1  0  0  0  0  0  0  0  0  0
   -6.3708   -0.1892   -0.7152 C   0  0  0  0  0  0  0  0  0  0  0  0
   -7.5327   -0.2070   -1.6635 C   0  0  0  0  0  0  0  0  0  0  0  0
   -8.7925   -0.6401   -0.9534 C   0  0  0  0  0  0  0  0  0  0  0  0
   -9.8852   -0.7289   -1.5588 O   0  0  0  0  0  0  0  0  0  0  0  0
   -8.6922   -0.9352    0.3946 O   0  0  0  0  0  0  0  0  0  0  0  0
   -5.1856    1.5601   -1.9537 C   0  0  0  0  0  0  0  0  0  0  0  0
   -4.4047    2.4503   -1.5439 O   0  0  0  0  0  0  0  0  0  0  0  0
   -6.0901    1.9155   -2.9289 O   0  0  0  0  0  0  0  0  0  0  0  0
   -0.6225   -1.4572   -0.0929 C   0  0  0  0  0  0  0  0  0  0  0  0
    0.4842   -1.5186    0.7325 C   0  0  0  0  0  0  0  0  0  0  0  0
    4.9425   -1.4133    1.1948 N   0  0  0  0  0  0  0  0  0  0  0  0
    8.7372    1.9768   -2.2647 H   0  0  0  0  0  0  0  0  0  0  0  0
    8.9780    0.4774   -3.1917 H   0  0  0  0  0  0  0  0  0  0  0  0
    6.5145    2.1225   -1.1416 H   0  0  0  0  0  0  0  0  0  0  0  0
    4.4445    2.1729    0.1663 H   0  0  0  0  0  0  0  0  0  0  0  0
    3.1040    1.3038    1.8886 H   0  0  0  0  0  0  0  0  0  0  0  0
    4.6933    0.8189    2.6240 H   0  0  0  0  0  0  0  0  0  0  0  0
    3.1337   -0.7202    0.4897 H   0  0  0  0  0  0  0  0  0  0  0  0
    2.7153   -2.4705    2.2468 H   0  0  0  0  0  0  0  0  0  0  0  0
    3.5417   -1.4422    3.4214 H   0  0  0  0  0  0  0  0  0  0  0  0
    1.5058   -0.3219    3.7158 H   0  0  0  0  0  0  0  0  0  0  0  0
   -0.5332    0.6375    3.0735 H   0  0  0  0  0  0  0  0  0  0  0  0
   -2.4711    0.7492    1.6345 H   0  0  0  0  0  0  0  0  0  0  0  0
   -4.0527    0.8198    0.3588 H   0  0  0  0  0  0  0  0  0  0  0  0
   -4.8606   -0.5240   -2.2207 H   0  0  0  0  0  0  0  0  0  0  0  0
   -6.2898   -1.1979   -0.2587 H   0  0  0  0  0  0  0  0  0  0  0  0
   -6.6133    0.5850    0.0591 H   0  0  0  0  0  0  0  0  0  0  0  0
   -7.8120    0.8161   -2.0471 H   0  0  0  0  0  0  0  0  0  0  0  0
   -7.4048   -0.9137   -2.5080 H   0  0  0  0  0  0  0  0  0  0  0  0
   -9.5188   -0.7996    0.9676 H   0  0  0  0  0  0  0  0  0  0  0  0
   -6.2024    2.8523   -3.2917 H   0  0  0  0  0  0  0  0  0  0  0  0
   -0.6849   -2.0378   -1.0016 H   0  0  0  0  0  0  0  0  0  0  0  0
    1.2928   -2.1733    0.4525 H   0  0  0  0  0  0  0  0  0  0  0  0
    5.2391   -2.3079    1.6312 H   0  0  0  0  0  0  0  0  0  0  0  0
  1  2  1  0
  2  3  2  0
  3  4  1  0
  4  5  2  0
  4  6  1  0
  6  7  2  0
  7  8  1  0
  7  9  1  0
  9 10  1  0
 10 11  1  0
 11 12  1  0
 12 13  1  0
 13 14  1  0
 14 15  2  0
 15 16  1  0
 16 17  2  0
 17 18  1  0
 18 19  2  0
 18 20  1  0
 20 21  1  0
 21 22  1  0
 22 23  1  0
 23 24  1  0
 24 25  2  0
 24 26  1  0
 21 27  1  0
 27 28  2  0
 27 29  1  0
 17 30  1  0
 30 31  2  0
 11 32  1  0
  8  2  1  0
 31 14  1  0
 32  6  1  0
  1 33  1  0
  1 34  1  0
  8 35  1  0
  9 36  1  0
 10 37  1  0
 10 38  1  0
 11 39  1  6
 12 40  1  0
 12 41  1  0
 13 42  1  0
 15 43  1  0
 16 44  1  0
 20 45  1  0
 21 46  1  6
 22 47  1  0
 22 48  1  0
 23 49  1  0
 23 50  1  0
 26 51  1  0
 29 52  1  0
 30 53  1  0
 31 54  1  0
 32 55  1  0
M  END
$$$$

     RDKit          3D

 55 57  0  0  0  0  0  0  0  0999 V2000
   -9.1394   -0.7810    1.2661 N   0  0  0  0  0  0  0  0  0  0  0  0
   -7.7292   -0.6335    1.2656 C   0  0  0  0  0  0  0  0  0  0  0  0
   -6.9204   -1.5675    1.7939 N   0  0  0  0  0  0  0  0  0  0  0  0
   -5.5824   -1.4561    1.8081 C   0  0  0  0  0  0  0  0  0  0  0  0
   -4.8224   -2.3197    2.2975 O   0  0  0  0  0  0  0  0  0  0  0  0
   -4.9807   -0.3264    1.2542 C   0  0  0  0  0  0  0  0  0  0  0  0
   -5.8133    0.6263    0.7148 C   0  0  0  0  0  0  0  0  0  0  0  0
   -7.1525    0.4563    0.7309 N   0  0  0  0  0  0  0  0  0  0  0  0
   -5.2141    1.7874    0.1441 N   0  0  0  0  0  0  0  0  0  0  0  0
   -3.8046    2.0594    0.3149 C   0  0  0  0  0  0  0  0  0  0  0  0
   -2.9934    0.7751    0.2930 C   0  0  2  0  0  0  0  0  0  0  0  0
   -3.1062    0.1052   -1.0559 C   0  0  0  0  0  0  0  0  0  0  0  0
   -2.3153   -1.1000   -1.0307 N   0  0  0  0  0  0  0  0  0  0  0  0
   -0.9021   -0.9925   -0.9771 C   0  0  0  0  0  0  0  0  0  0  0  0
   -0.2554    0.1982   -1.1972 C   0  0  0  0  0  0  0  0  0  0  0  0
    1.1334    0.2831   -1.1301 C   0  0  0  0  0  0  0  0  0  0  0  0
    1.8376   -0.8566   -0.8385 C   0  0  0  0  0  0  0  0  0  0  0  0
    3.2862   -0.7904   -0.7737 C   0  0  0  0  0  0  0  0  0  0  0  0
    3.8988   -1.7472   -0.2230 O   0  0  0  0  0  0  0  0  0  0  0  0
    3.9821    0.3143   -1.3135 N   0  0  0  0  0  0  0  0  0  0  0  0
    5.4415    0.3077   -1.2096 C   0  0  1  0  0  0  0  0  0  0  0  0
    5.8891    0.4461    0.2139 C   0  0  0  0  0  0  0  0  0  0  0  0
    7.3624    0.4528    0.4249 C   0  0  0  0  0  0  0  0  0  0  0  0
    7.6048    0.6031    1.8790 C   0  0  0  0  0  0  0  0  0  0  0  0
    7.4680    1.7173    2.4325 O   0  0  0  0  0  0  0  0  0  0  0  0
    7.9848   -0.4775    2.6504 O   0  0  0  0  0  0  0  0  0  0  0  0
    5.9540   -0.8533   -1.9279 C   0  0  0  0  0  0  0  0  0  0  0  0
    5.1674   -1.6426   -2.5021 O   0  0  0  0  0  0  0  0  0  0  0  0
    7.3057   -1.1453   -2.0166 O   0  0  0  0  0  0  0  0  0  0  0  0
    1.2113   -2.0807   -0.6098 C   0  0  0  0  0  0  0  0  0  0  0  0
   -0.1587   -2.1151   -0.6866 C   0  0  0  0  0  0  0  0  0  0  0  0
   -3.5675   -0.1786    1.2523 N   0  0  0  0  0  0  0  0  0  0  0  0
   -9.5836   -1.6524    1.6244 H   0  0  0  0  0  0  0  0  0  0  0  0
   -9.7534   -0.0219    0.9093 H   0  0  0  0  0  0  0  0  0  0  0  0
   -7.7579    1.1964    0.3143 H   0  0  0  0  0  0  0  0  0  0  0  0
   -5.8016    2.4567   -0.4090 H   0  0  0  0  0  0  0  0  0  0  0  0
   -3.6631    2.5675    1.2754 H   0  0  0  0  0  0  0  0  0  0  0  0
   -3.4032    2.7161   -0.4799 H   0  0  0  0  0  0  0  0  0  0  0  0
   -1.9632    1.0272    0.5753 H   0  0  0  0  0  0  0  0  0  0  0  0
   -4.1729   -0.1770   -1.1754 H   0  0  0  0  0  0  0  0  0  0  0  0
   -2.7853    0.7858   -1.8793 H   0  0  0  0  0  0  0  0  0  0  0  0
   -2.8016   -2.0252   -1.0525 H   0  0  0  0  0  0  0  0  0  0  0  0
   -0.7796    1.1144   -1.4397 H   0  0  0  0  0  0  0  0  0  0  0  0
    1.5975    1.2604   -1.3100 H   0  0  0  0  0  0  0  0  0  0  0  0
    3.5137    1.1192   -1.7786 H   0  0  0  0  0  0  0  0  0  0  0  0
    5.7947    1.2472   -1.7333 H   0  0  0  0  0  0  0  0  0  0  0  0
    5.4318   -0.3656    0.8420 H   0  0  0  0  0  0  0  0  0  0  0  0
    5.4933    1.3886    0.6718 H   0  0  0  0  0  0  0  0  0  0  0  0
    7.8218    1.3506   -0.0691 H   0  0  0  0  0  0  0  0  0  0  0  0
    7.8967   -0.4517    0.1085 H   0  0  0  0  0  0  0  0  0  0  0  0
    7.9610   -0.5059    3.6528 H   0  0  0  0  0  0  0  0  0  0  0  0
    7.7237   -1.5299   -2.8778 H   0  0  0  0  0  0  0  0  0  0  0  0
    1.7964   -2.9615   -0.3815 H   0  0  0  0  0  0  0  0  0  0  0  0
   -0.6819   -3.0635   -0.5117 H   0  0  0  0  0  0  0  0  0  0  0  0
   -2.9533   -0.7015    1.8804 H   0  0  0  0  0  0  0  0  0  0  0  0
  1  2  1  0
  2  3  2  0
  3  4  1  0
  4  5  2  0
  4  6  1  0
  6  7  2  0
  7  8  1  0
  7  9  1  0
  9 10  1  0
 10 11  1  0
 11 12  1  0
 12 13  1  0
 13 14  1  0
 14 15  2  0
 15 16  1  0
 16 17  2  0
 17 18  1  0
 18 19  2  0
 18 20  1  0
 20 21  1  0
 21 22  1  0
 22 23  1  0
 23 24  1  0
 24 25  2  0
 24 26  1  0
 21 27  1  0
 27 28  2  0
 27 29  1  0
 17 30  1  0
 30 31  2  0
 11 32  1  0
  8  2  1  0
 31 14  1  0
 32  6  1  0
  1 33  1  0
  1 34  1  0
  8 35  1  0
  9 36  1  0
 10 37  1  0
 10 38  1  0
 11 39  1  1
 12 40  1  0
 12 41  1  0
 13 42  1  0
 15 43  1  0
 16 44  1  0
 20 45  1  0
 21 46  1  6
 22 47  1  0
 22 48  1  0
 23 49  1  0
 23 50  1  0
 26 51  1  0
 29 52  1  0
 30 53  1  0
 31 54  1  0
 32 55  1  0
M  END
$$$$

     RDKit          3D

 55 57  0  0  0  0  0  0  0  0999 V2000
   -9.0064    2.1360   -0.0635 N   0  0  0  0  0  0  0  0  0  0  0  0
   -7.6146    1.9559    0.1399 C   0  0  0  0  0  0  0  0  0  0  0  0
   -6.9857    2.5879    1.1368 N   0  0  0  0  0  0  0  0  0  0  0  0
   -5.6644    2.4490    1.3709 C   0  0  0  0  0  0  0  0  0  0  0  0
   -5.0604    3.0317    2.2974 O   0  0  0  0  0  0  0  0  0  0  0  0
   -4.9481    1.6235    0.5462 C   0  0  0  0  0  0  0  0  0  0  0  0
   -5.5614    0.9618   -0.4835 C   0  0  0  0  0  0  0  0  0  0  0  0
   -6.8956    1.1516   -0.6569 N   0  0  0  0  0  0  0  0  0  0  0  0
   -4.8017    0.1180   -1.3168 N   0  0  0  0  0  0  0  0  0  0  0  0
   -3.3700    0.2998   -1.4556 C   0  0  0  0  0  0  0  0  0  0  0  0
   -2.7678    0.5134   -0.0756 C   0  0  2  0  0  0  0  0  0  0  0  0
   -2.7662   -0.8262    0.6012 C   0  0  0  0  0  0  0  0  0  0  0  0
   -1.9972   -1.8352   -0.0774 N   0  0  0  0  0  0  0  0  0  0  0  0
   -0.5808   -1.7694   -0.1751 C   0  0  0  0  0  0  0  0  0  0  0  0
    0.1872   -0.8739    0.5272 C   0  0  0  0  0  0  0  0  0  0  0  0
    1.5824   -0.8411    0.3889 C   0  0  0  0  0  0  0  0  0  0  0  0
    2.2245   -1.7057   -0.4547 C   0  0  0  0  0  0  0  0  0  0  0  0
    3.6560   -1.7091   -0.6254 C   0  0  0  0  0  0  0  0  0  0  0  0
    4.1982   -2.5025   -1.4605 O   0  0  0  0  0  0  0  0  0  0  0  0
    4.5648   -0.8695    0.0854 N   0  0  0  0  0  0  0  0  0  0  0  0
    5.9909   -0.9410   -0.1502 C   0  0  1  0  0  0  0  0  0  0  0  0
    6.6276    0.4118   -0.1665 C   0  0  0  0  0  0  0  0  0  0  0  0
    6.1502    1.3700   -1.1943 C   0  0  0  0  0  0  0  0  0  0  0  0
    4.7364    1.7041   -1.0923 C   0  0  0  0  0  0  0  0  0  0  0  0
    3.8843    1.1895   -1.8508 O   0  0  0  0  0  0  0  0  0  0  0  0
    4.2586    2.6132   -0.1460 O   0  0  0  0  0  0  0  0  0  0  0  0
    6.5985   -1.6685    1.0184 C   0  0  0  0  0  0  0  0  0  0  0  0
    5.8754   -2.0673    1.9304 O   0  0  0  0  0  0  0  0  0  0  0  0
    7.9522   -1.8657    1.0301 O   0  0  0  0  0  0  0  0  0  0  0  0
    1.4528   -2.5988   -1.1541 C   0  0  0  0  0  0  0  0  0  0  0  0
    0.0768   -2.6457   -1.0309 C   0  0  0  0  0  0  0  0  0  0  0  0
   -3.5490    1.4196    0.7214 N   0  0  0  0  0  0  0  0  0  0  0  0
   -9.5240    1.7480   -0.8766 H   0  0  0  0  0  0  0  0  0  0  0  0
   -9.5757    2.6844    0.6225 H   0  0  0  0  0  0  0  0  0  0  0  0
   -7.3410    0.6328   -1.4532 H   0  0  0  0  0  0  0  0  0  0  0  0
   -5.2874   -0.6460   -1.8372 H   0  0  0  0  0  0  0  0  0  0  0  0
   -3.1129    1.1783   -2.0797 H   0  0  0  0  0  0  0  0  0  0  0  0
   -2.8968   -0.6465   -1.8434 H   0  0  0  0  0  0  0  0  0  0  0  0
   -1.7670    0.9271   -0.2490 H   0  0  0  0  0  0  0  0  0  0  0  0
   -3.8039   -1.1681    0.7719 H   0  0  0  0  0  0  0  0  0  0  0  0
   -2.3556   -0.6431    1.6376 H   0  0  0  0  0  0  0  0  0  0  0  0
   -2.5072   -2.6359   -0.5079 H   0  0  0  0  0  0  0  0  0  0  0  0
   -0.3002   -0.1787    1.2139 H   0  0  0  0  0  0  0  0  0  0  0  0
    2.1407   -0.1087    0.9714 H   0  0  0  0  0  0  0  0  0  0  0  0
    4.1580   -0.2069    0.7772 H   0  0  0  0  0  0  0  0  0  0  0  0
    6.1909   -1.5427   -1.0826 H   0  0  0  0  0  0  0  0  0  0  0  0
    7.7433    0.2363   -0.2931 H   0  0  0  0  0  0  0  0  0  0  0  0
    6.5056    0.8471    0.8723 H   0  0  0  0  0  0  0  0  0  0  0  0
    6.7474    2.3101   -1.0921 H   0  0  0  0  0  0  0  0  0  0  0  0
    6.4236    0.9365   -2.1934 H   0  0  0  0  0  0  0  0  0  0  0  0
    3.3769    2.4413    0.3617 H   0  0  0  0  0  0  0  0  0  0  0  0
    8.4688   -2.2673    1.8039 H   0  0  0  0  0  0  0  0  0  0  0  0
    1.8831   -3.3290   -1.8532 H   0  0  0  0  0  0  0  0  0  0  0  0
   -0.5389   -3.3506   -1.5822 H   0  0  0  0  0  0  0  0  0  0  0  0
   -3.0750    1.9646    1.4738 H   0  0  0  0  0  0  0  0  0  0  0  0
  1  2  1  0
  2  3  2  0
  3  4  1  0
  4  5  2  0
  4  6  1  0
  6  7  2  0
  7  8  1  0
  7  9  1  0
  9 10  1  0
 10 11  1  0
 11 12  1  0
 12 13  1  0
 13 14  1  0
 14 15  2  0
 15 16  1  0
 16 17  2  0
 17 18  1  0
 18 19  2  0
 18 20  1  0
 20 21  1  0
 21 22  1  0
 22 23  1  0
 23 24  1  0
 24 25  2  0
 24 26  1  0
 21 27  1  0
 27 28  2  0
 27 29  1  0
 17 30  1  0
 30 31  2  0
 11 32  1  0
  8  2  1  0
 31 14  1  0
 32  6  1  0
  1 33  1  0
  1 34  1  0
  8 35  1  0
  9 36  1  0
 10 37  1  0
 10 38  1  0
 11 39  1  6
 12 40  1  0
 12 41  1  0
 13 42  1  0
 15 43  1  0
 16 44  1  0
 20 45  1  0
 21 46  1  6
 22 47  1  0
 22 48  1  0
 23 49  1  0
 23 50  1  0
 26 51  1  0
 29 52  1  0
 30 53  1  0
 31 54  1  0
 32 55  1  0
M  END
$$$$

     RDKit          3D

 55 57  0  0  0  0  0  0  0  0999 V2000
   -9.3081   -1.2851   -1.6904 N   0  0  0  0  0  0  0  0  0  0  0  0
   -7.9125   -1.0450   -1.6032 C   0  0  0  0  0  0  0  0  0  0  0  0
   -7.2926   -0.5078   -2.6805 N   0  0  0  0  0  0  0  0  0  0  0  0
   -5.9637   -0.2467   -2.6814 C   0  0  0  0  0  0  0  0  0  0  0  0
   -5.3852    0.2537   -3.6849 O   0  0  0  0  0  0  0  0  0  0  0  0
   -5.2296   -0.5308   -1.5711 C   0  0  0  0  0  0  0  0  0  0  0  0
   -5.8570   -1.0792   -0.4684 C   0  0  0  0  0  0  0  0  0  0  0  0
   -7.1683   -1.3170   -0.5192 N   0  0  0  0  0  0  0  0  0  0  0  0
   -5.0461   -1.3535    0.6507 N   0  0  0  0  0  0  0  0  0  0  0  0
   -3.8636   -0.6008    0.9368 C   0  0  0  0  0  0  0  0  0  0  0  0
   -3.1802   -0.0151   -0.2569 C   0  0  2  0  0  0  0  0  0  0  0  0
   -3.1502    1.5116   -0.0667 C   0  0  0  0  0  0  0  0  0  0  0  0
   -2.4102    1.7536    1.1419 N   0  0  0  0  0  0  0  0  0  0  0  0
   -1.0136    1.4897    1.1647 C   0  0  0  0  0  0  0  0  0  0  0  0
   -0.3312    1.4501    2.3917 C   0  0  0  0  0  0  0  0  0  0  0  0
    1.0233    1.2180    2.4467 C   0  0  0  0  0  0  0  0  0  0  0  0
    1.7922    1.0118    1.3219 C   0  0  0  0  0  0  0  0  0  0  0  0
    3.2229    0.7728    1.4566 C   0  0  0  0  0  0  0  0  0  0  0  0
    3.7235    0.7153    2.6153 O   0  0  0  0  0  0  0  0  0  0  0  0
    4.1132    0.5971    0.3671 N   0  0  0  0  0  0  0  0  0  0  0  0
    5.5515    0.3588    0.5510 C   0  0  1  0  0  0  0  0  0  0  0  0
    5.9598   -0.9097   -0.1069 C   0  0  0  0  0  0  0  0  0  0  0  0
    7.4215   -1.1820    0.0786 C   0  0  0  0  0  0  0  0  0  0  0  0
    7.7947   -2.4892   -0.5591 C   0  0  0  0  0  0  0  0  0  0  0  0
    6.8903   -3.1352   -1.1253 O   0  0  0  0  0  0  0  0  0  0  0  0
    9.0719   -2.9894   -0.5414 O   0  0  0  0  0  0  0  0  0  0  0  0
    6.2464    1.5272   -0.0160 C   0  0  0  0  0  0  0  0  0  0  0  0
    5.5213    2.4122   -0.6028 O   0  0  0  0  0  0  0  0  0  0  0  0
    7.6217    1.7347    0.0450 O   0  0  0  0  0  0  0  0  0  0  0  0
    1.1254    1.0506    0.1206 C   0  0  0  0  0  0  0  0  0  0  0  0
   -0.2450    1.2845    0.0477 C   0  0  0  0  0  0  0  0  0  0  0  0
   -3.8472   -0.2908   -1.4910 N   0  0  0  0  0  0  0  0  0  0  0  0
  -10.0112   -0.4989   -1.5654 H   0  0  0  0  0  0  0  0  0  0  0  0
   -9.6820   -2.2477   -1.8813 H   0  0  0  0  0  0  0  0  0  0  0  0
   -7.6316   -1.7371    0.3308 H   0  0  0  0  0  0  0  0  0  0  0  0
   -5.3452   -2.1431    1.2845 H   0  0  0  0  0  0  0  0  0  0  0  0
   -3.1621   -1.2761    1.5041 H   0  0  0  0  0  0  0  0  0  0  0  0
   -4.1624    0.2555    1.6154 H   0  0  0  0  0  0  0  0  0  0  0  0
   -2.1212   -0.4101   -0.2666 H   0  0  0  0  0  0  0  0  0  0  0  0
   -2.6084    1.9500   -0.9090 H   0  0  0  0  0  0  0  0  0  0  0  0
   -4.1967    1.8878    0.0028 H   0  0  0  0  0  0  0  0  0  0  0  0
   -2.9344    2.1170    1.9606 H   0  0  0  0  0  0  0  0  0  0  0  0
   -0.9432    1.6136    3.2828 H   0  0  0  0  0  0  0  0  0  0  0  0
    1.5273    1.1921    3.4129 H   0  0  0  0  0  0  0  0  0  0  0  0
    3.7083    0.6426   -0.5876 H   0  0  0  0  0  0  0  0  0  0  0  0
    5.8134    0.3182    1.6220 H   0  0  0  0  0  0  0  0  0  0  0  0
    5.3267   -1.7791    0.1827 H   0  0  0  0  0  0  0  0  0  0  0  0
    5.8135   -0.7445   -1.2200 H   0  0  0  0  0  0  0  0  0  0  0  0
    7.6820   -1.1313    1.1409 H   0  0  0  0  0  0  0  0  0  0  0  0
    7.9863   -0.3667   -0.4532 H   0  0  0  0  0  0  0  0  0  0  0  0
    9.3682   -3.7566   -1.1618 H   0  0  0  0  0  0  0  0  0  0  0  0
    7.9645    2.6871    0.1438 H   0  0  0  0  0  0  0  0  0  0  0  0
    1.7126    0.8897   -0.7885 H   0  0  0  0  0  0  0  0  0  0  0  0
   -0.6987    1.3125   -0.9301 H   0  0  0  0  0  0  0  0  0  0  0  0
   -3.2812   -0.3154   -2.3905 H   0  0  0  0  0  0  0  0  0  0  0  0
  1  2  1  0
  2  3  2  0
  3  4  1  0
  4  5  2  0
  4  6  1  0
  6  7  2  0
  7  8  1  0
  7  9  1  0
  9 10  1  0
 10 11  1  0
 11 12  1  0
 12 13  1  0
 13 14  1  0
 14 15  2  0
 15 16  1  0
 16 17  2  0
 17 18  1  0
 18 19  2  0
 18 20  1  0
 20 21  1  0
 21 22  1  0
 22 23  1  0
 23 24  1  0
 24 25  2  0
 24 26  1  0
 21 27  1  0
 27 28  2  0
 27 29  1  0
 17 30  1  0
 30 31  2  0
 11 32  1  0
  8  2  1  0
 31 14  1  0
 32  6  1  0
  1 33  1  0
  1 34  1  0
  8 35  1  0
  9 36  1  0
 10 37  1  0
 10 38  1  0
 11 39  1  6
 12 40  1  0
 12 41  1  0
 13 42  1  0
 15 43  1  0
 16 44  1  0
 20 45  1  0
 21 46  1  1
 22 47  1  0
 22 48  1  0
 23 49  1  0
 23 50  1  0
 26 51  1  0
 29 52  1  0
 30 53  1  0
 31 54  1  0
 32 55  1  0
M  END
$$$$

     RDKit          3D

 55 57  0  0  0  0  0  0  0  0999 V2000
    9.9213   -0.3905   -1.1358 N   0  0  0  0  0  0  0  0  0  0  0  0
    8.5627   -0.1129   -0.8123 C   0  0  0  0  0  0  0  0  0  0  0  0
    7.9502    1.0088   -1.2108 N   0  0  0  0  0  0  0  0  0  0  0  0
    6.6654    1.3057   -0.9208 C   0  0  0  0  0  0  0  0  0  0  0  0
    6.1072    2.3527   -1.2972 O   0  0  0  0  0  0  0  0  0  0  0  0
    5.9363    0.4084   -0.1722 C   0  0  0  0  0  0  0  0  0  0  0  0
    6.5514   -0.7575    0.2495 C   0  0  0  0  0  0  0  0  0  0  0  0
    7.8354   -0.9765   -0.0831 N   0  0  0  0  0  0  0  0  0  0  0  0
    5.7593   -1.6479    1.0129 N   0  0  0  0  0  0  0  0  0  0  0  0
    4.6106   -1.2578    1.7991 C   0  0  0  0  0  0  0  0  0  0  0  0
    3.9285   -0.0108    1.3264 C   0  0  2  0  0  0  0  0  0  0  0  0
    2.4854   -0.3753    0.9575 C   0  0  0  0  0  0  0  0  0  0  0  0
    1.7730    0.7752    0.5048 N   0  0  0  0  0  0  0  0  0  0  0  0
    0.4245    0.7963    0.0888 C   0  0  0  0  0  0  0  0  0  0  0  0
   -0.4160   -0.2791    0.2270 C   0  0  0  0  0  0  0  0  0  0  0  0
   -1.7460   -0.2080   -0.2057 C   0  0  0  0  0  0  0  0  0  0  0  0
   -2.2652    0.9222   -0.7796 C   0  0  0  0  0  0  0  0  0  0  0  0
   -3.6496    1.0511   -1.2179 C   0  0  0  0  0  0  0  0  0  0  0  0
   -3.9512    1.8057   -2.1753 O   0  0  0  0  0  0  0  0  0  0  0  0
   -4.7451    0.3587   -0.6121 N   0  0  0  0  0  0  0  0  0  0  0  0
   -6.0979    0.5260   -1.0537 C   0  0  1  0  0  0  0  0  0  0  0  0
   -6.6979   -0.7291   -1.5530 C   0  0  0  0  0  0  0  0  0  0  0  0
   -6.7855   -1.8640   -0.5856 C   0  0  0  0  0  0  0  0  0  0  0  0
   -7.5895   -1.5347    0.6179 C   0  0  0  0  0  0  0  0  0  0  0  0
   -7.0234   -1.2685    1.7318 O   0  0  0  0  0  0  0  0  0  0  0  0
   -8.9879   -1.4918    0.6191 O   0  0  0  0  0  0  0  0  0  0  0  0
   -6.9182    1.2511   -0.0432 C   0  0  0  0  0  0  0  0  0  0  0  0
   -6.3874    1.6572    1.0429 O   0  0  0  0  0  0  0  0  0  0  0  0
   -8.2626    1.5219   -0.2100 O   0  0  0  0  0  0  0  0  0  0  0  0
   -1.3911    2.0093   -0.9126 C   0  0  0  0  0  0  0  0  0  0  0  0
   -0.0874    1.9588   -0.4950 C   0  0  0  0  0  0  0  0  0  0  0  0
    4.5969    0.6006    0.1956 N   0  0  0  0  0  0  0  0  0  0  0  0
   10.3733   -1.3092   -0.9526 H   0  0  0  0  0  0  0  0  0  0  0  0
   10.5083    0.3493   -1.5759 H   0  0  0  0  0  0  0  0  0  0  0  0
    8.2667   -1.8737    0.2562 H   0  0  0  0  0  0  0  0  0  0  0  0
    6.0388   -2.6613    0.9966 H   0  0  0  0  0  0  0  0  0  0  0  0
    5.0060   -1.1321    2.8512 H   0  0  0  0  0  0  0  0  0  0  0  0
    3.9156   -2.1373    1.8401 H   0  0  0  0  0  0  0  0  0  0  0  0
    3.9360    0.7364    2.1508 H   0  0  0  0  0  0  0  0  0  0  0  0
    2.4981   -1.2043    0.2173 H   0  0  0  0  0  0  0  0  0  0  0  0
    1.9996   -0.7751    1.8619 H   0  0  0  0  0  0  0  0  0  0  0  0
    2.3065    1.6912    0.4904 H   0  0  0  0  0  0  0  0  0  0  0  0
    0.0033   -1.1729    0.6840 H   0  0  0  0  0  0  0  0  0  0  0  0
   -2.3714   -1.0831   -0.0782 H   0  0  0  0  0  0  0  0  0  0  0  0
   -4.5464   -0.2827    0.1725 H   0  0  0  0  0  0  0  0  0  0  0  0
   -6.0546    1.2314   -1.9419 H   0  0  0  0  0  0  0  0  0  0  0  0
   -6.0296   -1.0945   -2.3928 H   0  0  0  0  0  0  0  0  0  0  0  0
   -7.6764   -0.5570   -2.0689 H   0  0  0  0  0  0  0  0  0  0  0  0
   -7.2750   -2.7610   -1.0569 H   0  0  0  0  0  0  0  0  0  0  0  0
   -5.7590   -2.1065   -0.2382 H   0  0  0  0  0  0  0  0  0  0  0  0
   -9.4390   -0.6914    1.0800 H   0  0  0  0  0  0  0  0  0  0  0  0
   -8.6425    2.4532    0.0478 H   0  0  0  0  0  0  0  0  0  0  0  0
   -1.7703    2.9045   -1.3578 H   0  0  0  0  0  0  0  0  0  0  0  0
    0.5761    2.8277   -0.6111 H   0  0  0  0  0  0  0  0  0  0  0  0
    4.0297    1.2431   -0.4008 H   0  0  0  0  0  0  0  0  0  0  0  0
  1  2  1  0
  2  3  2  0
  3  4  1  0
  4  5  2  0
  4  6  1  0
  6  7  2  0
  7  8  1  0
  7  9  1  0
  9 10  1  0
 10 11  1  0
 11 12  1  0
 12 13  1  0
 13 14  1  0
 14 15  2  0
 15 16  1  0
 16 17  2  0
 17 18  1  0
 18 19  2  0
 18 20  1  0
 20 21  1  0
 21 22  1  0
 22 23  1  0
 23 24  1  0
 24 25  2  0
 24 26  1  0
 21 27  1  0
 27 28  2  0
 27 29  1  0
 17 30  1  0
 30 31  2  0
 11 32  1  0
  8  2  1  0
 31 14  1  0
 32  6  1  0
  1 33  1  0
  1 34  1  0
  8 35  1  0
  9 36  1  0
 10 37  1  0
 10 38  1  0
 11 39  1  1
 12 40  1  0
 12 41  1  0
 13 42  1  0
 15 43  1  0
 16 44  1  0
 20 45  1  0
 21 46  1  6
 22 47  1  0
 22 48  1  0
 23 49  1  0
 23 50  1  0
 26 51  1  0
 29 52  1  0
 30 53  1  0
 31 54  1  0
 32 55  1  0
M  END
$$$$

     RDKit          3D

 55 57  0  0  0  0  0  0  0  0999 V2000
   -9.7429    2.2436    0.4454 N   0  0  0  0  0  0  0  0  0  0  0  0
   -8.4107    1.7214    0.5477 C   0  0  0  0  0  0  0  0  0  0  0  0
   -7.4516    2.3432    1.2572 N   0  0  0  0  0  0  0  0  0  0  0  0
   -6.1963    1.8285    1.3390 C   0  0  0  0  0  0  0  0  0  0  0  0
   -5.2885    2.3976    1.9981 O   0  0  0  0  0  0  0  0  0  0  0  0
   -5.8656    0.6552    0.6991 C   0  0  0  0  0  0  0  0  0  0  0  0
   -6.8616    0.0300   -0.0245 C   0  0  0  0  0  0  0  0  0  0  0  0
   -8.1007    0.5736   -0.0826 N   0  0  0  0  0  0  0  0  0  0  0  0
   -6.5218   -1.1791   -0.6842 N   0  0  0  0  0  0  0  0  0  0  0  0
   -5.2623   -1.8770   -0.4055 C   0  0  0  0  0  0  0  0  0  0  0  0
   -4.1873   -0.8409   -0.3201 C   0  0  2  0  0  0  0  0  0  0  0  0
   -2.8191   -1.3955   -0.1392 C   0  0  0  0  0  0  0  0  0  0  0  0
   -1.8706   -0.2908   -0.0709 N   0  0  0  0  0  0  0  0  0  0  0  0
   -0.4914   -0.4770    0.0930 C   0  0  0  0  0  0  0  0  0  0  0  0
    0.3420    0.6071    0.1547 C   0  0  0  0  0  0  0  0  0  0  0  0
    1.7016    0.4885    0.3133 C   0  0  0  0  0  0  0  0  0  0  0  0
    2.2622   -0.7555    0.4154 C   0  0  0  0  0  0  0  0  0  0  0  0
    3.7152   -0.9723    0.5879 C   0  0  0  0  0  0  0  0  0  0  0  0
    4.1593   -2.1408    0.6497 O   0  0  0  0  0  0  0  0  0  0  0  0
    4.6374    0.0914    0.6874 N   0  0  0  0  0  0  0  0  0  0  0  0
    6.0793   -0.1683    0.8588 C   0  0  1  0  0  0  0  0  0  0  0  0
    6.7333    0.3199   -0.3942 C   0  0  0  0  0  0  0  0  0  0  0  0
    8.2157    0.1557   -0.4465 C   0  0  0  0  0  0  0  0  0  0  0  0
    8.6818    0.6936   -1.7666 C   0  0  0  0  0  0  0  0  0  0  0  0
    9.9029    0.6823   -2.0823 O   0  0  0  0  0  0  0  0  0  0  0  0
    7.7931    1.2231   -2.6902 O   0  0  0  0  0  0  0  0  0  0  0  0
    6.5698    0.4555    2.0977 C   0  0  0  0  0  0  0  0  0  0  0  0
    5.8028    1.1093    2.8446 O   0  0  0  0  0  0  0  0  0  0  0  0
    7.8965    0.3366    2.4740 O   0  0  0  0  0  0  0  0  0  0  0  0
    1.4266   -1.8616    0.3541 C   0  0  0  0  0  0  0  0  0  0  0  0
    0.0710   -1.7294    0.1955 C   0  0  0  0  0  0  0  0  0  0  0  0
   -4.5582    0.0774    0.7573 N   0  0  0  0  0  0  0  0  0  0  0  0
  -10.5423    1.7509    0.9002 H   0  0  0  0  0  0  0  0  0  0  0  0
   -9.9685    3.1192   -0.0759 H   0  0  0  0  0  0  0  0  0  0  0  0
   -8.8526    0.0790   -0.6433 H   0  0  0  0  0  0  0  0  0  0  0  0
   -7.2070   -1.5635   -1.3862 H   0  0  0  0  0  0  0  0  0  0  0  0
   -5.3608   -2.3969    0.5729 H   0  0  0  0  0  0  0  0  0  0  0  0
   -5.1057   -2.6012   -1.2322 H   0  0  0  0  0  0  0  0  0  0  0  0
   -4.1936   -0.2930   -1.3073 H   0  0  0  0  0  0  0  0  0  0  0  0
   -2.7687   -2.0229    0.7738 H   0  0  0  0  0  0  0  0  0  0  0  0
   -2.5539   -1.9809   -1.0282 H   0  0  0  0  0  0  0  0  0  0  0  0
   -2.2469    0.6892   -0.1490 H   0  0  0  0  0  0  0  0  0  0  0  0
   -0.0340    1.6403    0.0803 H   0  0  0  0  0  0  0  0  0  0  0  0
    2.3411    1.3555    0.3594 H   0  0  0  0  0  0  0  0  0  0  0  0
    4.2813    1.0685    0.6380 H   0  0  0  0  0  0  0  0  0  0  0  0
    6.2032   -1.2724    0.8827 H   0  0  0  0  0  0  0  0  0  0  0  0
    6.3032   -0.2495   -1.2403 H   0  0  0  0  0  0  0  0  0  0  0  0
    6.4355    1.3834   -0.5510 H   0  0  0  0  0  0  0  0  0  0  0  0
    8.4655   -0.9235   -0.4397 H   0  0  0  0  0  0  0  0  0  0  0  0
    8.7591    0.7105    0.3498 H   0  0  0  0  0  0  0  0  0  0  0  0
    8.0678    1.9207   -3.3848 H   0  0  0  0  0  0  0  0  0  0  0  0
    8.2300    0.4120    3.4274 H   0  0  0  0  0  0  0  0  0  0  0  0
    1.8852   -2.8603    0.4370 H   0  0  0  0  0  0  0  0  0  0  0  0
   -0.5523   -2.6390    0.1523 H   0  0  0  0  0  0  0  0  0  0  0  0
   -3.9477    0.3284    1.5399 H   0  0  0  0  0  0  0  0  0  0  0  0
  1  2  1  0
  2  3  2  0
  3  4  1  0
  4  5  2  0
  4  6  1  0
  6  7  2  0
  7  8  1  0
  7  9  1  0
  9 10  1  0
 10 11  1  0
 11 12  1  0
 12 13  1  0
 13 14  1  0
 14 15  2  0
 15 16  1  0
 16 17  2  0
 17 18  1  0
 18 19  2  0
 18 20  1  0
 20 21  1  0
 21 22  1  0
 22 23  1  0
 23 24  1  0
 24 25  2  0
 24 26  1  0
 21 27  1  0
 27 28  2  0
 27 29  1  0
 17 30  1  0
 30 31  2  0
 11 32  1  0
  8  2  1  0
 31 14  1  0
 32  6  1  0
  1 33  1  0
  1 34  1  0
  8 35  1  0
  9 36  1  0
 10 37  1  0
 10 38  1  0
 11 39  1  6
 12 40  1  0
 12 41  1  0
 13 42  1  0
 15 43  1  0
 16 44  1  0
 20 45  1  0
 21 46  1  1
 22 47  1  0
 22 48  1  0
 23 49  1  0
 23 50  1  0
 26 51  1  0
 29 52  1  0
 30 53  1  0
 31 54  1  0
 32 55  1  0
M  END
$$$$

     RDKit          3D

 55 57  0  0  0  0  0  0  0  0999 V2000
   10.3038    0.1755    1.3878 N   0  0  0  0  0  0  0  0  0  0  0  0
    8.9649   -0.0182    0.9107 C   0  0  0  0  0  0  0  0  0  0  0  0
    8.6499   -1.1375    0.2317 N   0  0  0  0  0  0  0  0  0  0  0  0
    7.4160   -1.3850   -0.2474 C   0  0  0  0  0  0  0  0  0  0  0  0
    7.1233   -2.4273   -0.8802 O   0  0  0  0  0  0  0  0  0  0  0  0
    6.3980   -0.4609   -0.0482 C   0  0  0  0  0  0  0  0  0  0  0  0
    6.7179    0.6831    0.6457 C   0  0  0  0  0  0  0  0  0  0  0  0
    7.9875    0.8818    1.1086 N   0  0  0  0  0  0  0  0  0  0  0  0
    5.6986    1.6445    0.8660 N   0  0  0  0  0  0  0  0  0  0  0  0
    4.3219    1.2267    0.8088 C   0  0  0  0  0  0  0  0  0  0  0  0
    4.1119    0.4019   -0.4489 C   0  0  2  0  0  0  0  0  0  0  0  0
    2.7465   -0.2215   -0.4881 C   0  0  0  0  0  0  0  0  0  0  0  0
    1.6789    0.7286   -0.4599 N   0  0  0  0  0  0  0  0  0  0  0  0
    0.3427    0.2288   -0.4393 C   0  0  0  0  0  0  0  0  0  0  0  0
   -0.7512    1.0733   -0.4786 C   0  0  0  0  0  0  0  0  0  0  0  0
   -2.0388    0.5843   -0.4498 C   0  0  0  0  0  0  0  0  0  0  0  0
   -2.3086   -0.7666   -0.3805 C   0  0  0  0  0  0  0  0  0  0  0  0
   -3.6604   -1.3194   -0.3440 C   0  0  0  0  0  0  0  0  0  0  0  0
   -3.7987   -2.5586   -0.1832 O   0  0  0  0  0  0  0  0  0  0  0  0
   -4.8338   -0.5461   -0.4791 N   0  0  0  0  0  0  0  0  0  0  0  0
   -6.1430   -1.1676   -0.4292 C   0  0  1  0  0  0  0  0  0  0  0  0
   -7.0346   -0.5867    0.6221 C   0  0  0  0  0  0  0  0  0  0  0  0
   -7.2839    0.8931    0.3852 C   0  0  0  0  0  0  0  0  0  0  0  0
   -8.1506    1.4806    1.4100 C   0  0  0  0  0  0  0  0  0  0  0  0
   -7.7813    1.3639    2.6262 O   0  0  0  0  0  0  0  0  0  0  0  0
   -9.3491    2.1563    1.1593 O   0  0  0  0  0  0  0  0  0  0  0  0
   -6.8212   -1.0711   -1.7581 C   0  0  0  0  0  0  0  0  0  0  0  0
   -6.2797   -0.5259   -2.7467 O   0  0  0  0  0  0  0  0  0  0  0  0
   -8.1002   -1.6297   -1.8206 O   0  0  0  0  0  0  0  0  0  0  0  0
   -1.1954   -1.6026   -0.3420 C   0  0  0  0  0  0  0  0  0  0  0  0
    0.0955   -1.1313   -0.3700 C   0  0  0  0  0  0  0  0  0  0  0  0
    5.0783   -0.6771   -0.5305 N   0  0  0  0  0  0  0  0  0  0  0  0
   10.4344    0.6535    2.2887 H   0  0  0  0  0  0  0  0  0  0  0  0
   11.1519   -0.1432    0.8685 H   0  0  0  0  0  0  0  0  0  0  0  0
    8.2141    1.7631    1.6358 H   0  0  0  0  0  0  0  0  0  0  0  0
    5.9897    2.6319    1.0631 H   0  0  0  0  0  0  0  0  0  0  0  0
    4.0317    0.6635    1.7192 H   0  0  0  0  0  0  0  0  0  0  0  0
    3.6950    2.1398    0.7333 H   0  0  0  0  0  0  0  0  0  0  0  0
    4.2813    1.0912   -1.2988 H   0  0  0  0  0  0  0  0  0  0  0  0
    2.6787   -0.7221   -1.5030 H   0  0  0  0  0  0  0  0  0  0  0  0
    2.6647   -0.9420    0.3160 H   0  0  0  0  0  0  0  0  0  0  0  0
    1.7957    1.7643   -0.4526 H   0  0  0  0  0  0  0  0  0  0  0  0
   -0.5448    2.1303   -0.5326 H   0  0  0  0  0  0  0  0  0  0  0  0
   -2.8874    1.2606   -0.4809 H   0  0  0  0  0  0  0  0  0  0  0  0
   -4.7684    0.4853   -0.6169 H   0  0  0  0  0  0  0  0  0  0  0  0
   -6.0045   -2.2490   -0.2463 H   0  0  0  0  0  0  0  0  0  0  0  0
   -8.0331   -1.0696    0.5096 H   0  0  0  0  0  0  0  0  0  0  0  0
   -6.5999   -0.7531    1.6103 H   0  0  0  0  0  0  0  0  0  0  0  0
   -6.2887    1.4228    0.4284 H   0  0  0  0  0  0  0  0  0  0  0  0
   -7.6954    1.0883   -0.6059 H   0  0  0  0  0  0  0  0  0  0  0  0
   -9.9652    2.3393    1.9443 H   0  0  0  0  0  0  0  0  0  0  0  0
   -8.5639   -1.7180   -2.7217 H   0  0  0  0  0  0  0  0  0  0  0  0
   -1.4082   -2.6731   -0.2867 H   0  0  0  0  0  0  0  0  0  0  0  0
    0.8932   -1.8361   -0.3368 H   0  0  0  0  0  0  0  0  0  0  0  0
    4.8243   -1.6168   -0.9358 H   0  0  0  0  0  0  0  0  0  0  0  0
  1  2  1  0
  2  3  2  0
  3  4  1  0
  4  5  2  0
  4  6  1  0
  6  7  2  0
  7  8  1  0
  7  9  1  0
  9 10  1  0
 10 11  1  0
 11 12  1  0
 12 13  1  0
 13 14  1  0
 14 15  2  0
 15 16  1  0
 16 17  2  0
 17 18  1  0
 18 19  2  0
 18 20  1  0
 20 21  1  0
 21 22  1  0
 22 23  1  0
 23 24  1  0
 24 25  2  0
 24 26  1  0
 21 27  1  0
 27 28  2  0
 27 29  1  0
 17 30  1  0
 30 31  2  0
 11 32  1  0
  8  2  1  0
 31 14  1  0
 32  6  1  0
  1 33  1  0
  1 34  1  0
  8 35  1  0
  9 36  1  0
 10 37  1  0
 10 38  1  0
 11 39  1  6
 12 40  1  0
 12 41  1  0
 13 42  1  0
 15 43  1  0
 16 44  1  0
 20 45  1  0
 21 46  1  1
 22 47  1  0
 22 48  1  0
 23 49  1  0
 23 50  1  0
 26 51  1  0
 29 52  1  0
 30 53  1  0
 31 54  1  0
 32 55  1  0
M  END
$$$$

     RDKit          3D

 55 57  0  0  0  0  0  0  0  0999 V2000
    8.6324    0.5689    2.4809 N   0  0  0  0  0  0  0  0  0  0  0  0
    7.3036    0.2217    2.1829 C   0  0  0  0  0  0  0  0  0  0  0  0
    6.3178    0.5326    3.0615 N   0  0  0  0  0  0  0  0  0  0  0  0
    5.0516    0.2109    2.7966 C   0  0  0  0  0  0  0  0  0  0  0  0
    4.1346    0.4915    3.5977 O   0  0  0  0  0  0  0  0  0  0  0  0
    4.7179   -0.4485    1.6161 C   0  0  0  0  0  0  0  0  0  0  0  0
    5.7349   -0.7523    0.7431 C   0  0  0  0  0  0  0  0  0  0  0  0
    7.0068   -0.4203    1.0261 N   0  0  0  0  0  0  0  0  0  0  0  0
    5.4218   -1.4271   -0.4705 N   0  0  0  0  0  0  0  0  0  0  0  0
    4.1601   -2.1337   -0.5237 C   0  0  0  0  0  0  0  0  0  0  0  0
    3.0813   -1.1307   -0.0904 C   0  0  2  0  0  0  0  0  0  0  0  0
    3.1839    0.1424   -0.8631 C   0  0  0  0  0  0  0  0  0  0  0  0
    2.1569    1.0611   -0.4463 N   0  0  0  0  0  0  0  0  0  0  0  0
    0.7976    0.8093   -0.7552 C   0  0  0  0  0  0  0  0  0  0  0  0
    0.4204   -0.1484   -1.6408 C   0  0  0  0  0  0  0  0  0  0  0  0
   -0.9196   -0.3801   -1.9184 C   0  0  0  0  0  0  0  0  0  0  0  0
   -1.9405    0.3353   -1.3233 C   0  0  0  0  0  0  0  0  0  0  0  0
   -3.3206    0.0410   -1.6680 C   0  0  0  0  0  0  0  0  0  0  0  0
   -3.5280   -0.8928   -2.4837 O   0  0  0  0  0  0  0  0  0  0  0  0
   -4.4549    0.7292   -1.1537 N   0  0  0  0  0  0  0  0  0  0  0  0
   -5.7992    0.4390   -1.4976 C   0  0  1  0  0  0  0  0  0  0  0  0
   -6.6533   -0.3220   -0.5612 C   0  0  0  0  0  0  0  0  0  0  0  0
   -6.8763    0.2388    0.8036 C   0  0  0  0  0  0  0  0  0  0  0  0
   -5.7128    0.3228    1.6756 C   0  0  0  0  0  0  0  0  0  0  0  0
   -4.6336   -0.2271    1.3613 O   0  0  0  0  0  0  0  0  0  0  0  0
   -5.7533    1.0134    2.8870 O   0  0  0  0  0  0  0  0  0  0  0  0
   -6.4957    1.7029   -1.8649 C   0  0  0  0  0  0  0  0  0  0  0  0
   -5.8671    2.8130   -1.8443 O   0  0  0  0  0  0  0  0  0  0  0  0
   -7.8288    1.7669   -2.2423 O   0  0  0  0  0  0  0  0  0  0  0  0
   -1.5468    1.3066   -0.4247 C   0  0  0  0  0  0  0  0  0  0  0  0
   -0.2225    1.5415   -0.1448 C   0  0  0  0  0  0  0  0  0  0  0  0
    3.3860   -0.8012    1.3075 N   0  0  0  0  0  0  0  0  0  0  0  0
    8.9683    0.6630    3.4627 H   0  0  0  0  0  0  0  0  0  0  0  0
    9.3126    0.7409    1.7211 H   0  0  0  0  0  0  0  0  0  0  0  0
    7.8037   -0.6459    0.3652 H   0  0  0  0  0  0  0  0  0  0  0  0
    6.0793   -1.3954   -1.2502 H   0  0  0  0  0  0  0  0  0  0  0  0
    4.1287   -2.9513    0.2091 H   0  0  0  0  0  0  0  0  0  0  0  0
    3.9432   -2.4373   -1.5640 H   0  0  0  0  0  0  0  0  0  0  0  0
    2.0916   -1.5641   -0.1624 H   0  0  0  0  0  0  0  0  0  0  0  0
    3.0878   -0.0182   -1.9735 H   0  0  0  0  0  0  0  0  0  0  0  0
    4.1981    0.5681   -0.7064 H   0  0  0  0  0  0  0  0  0  0  0  0
    2.4302    1.9351    0.0983 H   0  0  0  0  0  0  0  0  0  0  0  0
    1.1871   -0.7300   -2.1434 H   0  0  0  0  0  0  0  0  0  0  0  0
   -1.1654   -1.1473   -2.6249 H   0  0  0  0  0  0  0  0  0  0  0  0
   -4.2468    1.5182   -0.5024 H   0  0  0  0  0  0  0  0  0  0  0  0
   -5.8337   -0.1883   -2.4656 H   0  0  0  0  0  0  0  0  0  0  0  0
   -7.6882   -0.3318   -1.0433 H   0  0  0  0  0  0  0  0  0  0  0  0
   -6.4094   -1.4159   -0.5243 H   0  0  0  0  0  0  0  0  0  0  0  0
   -7.6777   -0.3795    1.3198 H   0  0  0  0  0  0  0  0  0  0  0  0
   -7.3861    1.2266    0.6611 H   0  0  0  0  0  0  0  0  0  0  0  0
   -4.9529    0.9450    3.4909 H   0  0  0  0  0  0  0  0  0  0  0  0
   -8.2164    2.6343   -2.6294 H   0  0  0  0  0  0  0  0  0  0  0  0
   -2.3506    1.8754    0.0494 H   0  0  0  0  0  0  0  0  0  0  0  0
    0.0772    2.3051    0.5601 H   0  0  0  0  0  0  0  0  0  0  0  0
    2.6645   -0.8260    2.0289 H   0  0  0  0  0  0  0  0  0  0  0  0
  1  2  1  0
  2  3  2  0
  3  4  1  0
  4  5  2  0
  4  6  1  0
  6  7  2  0
  7  8  1  0
  7  9  1  0
  9 10  1  0
 10 11  1  0
 11 12  1  0
 12 13  1  0
 13 14  1  0
 14 15  2  0
 15 16  1  0
 16 17  2  0
 17 18  1  0
 18 19  2  0
 18 20  1  0
 20 21  1  0
 21 22  1  0
 22 23  1  0
 23 24  1  0
 24 25  2  0
 24 26  1  0
 21 27  1  0
 27 28  2  0
 27 29  1  0
 17 30  1  0
 30 31  2  0
 11 32  1  0
  8  2  1  0
 31 14  1  0
 32  6  1  0
  1 33  1  0
  1 34  1  0
  8 35  1  0
  9 36  1  0
 10 37  1  0
 10 38  1  0
 11 39  1  1
 12 40  1  0
 12 41  1  0
 13 42  1  0
 15 43  1  0
 16 44  1  0
 20 45  1  0
 21 46  1  6
 22 47  1  0
 22 48  1  0
 23 49  1  0
 23 50  1  0
 26 51  1  0
 29 52  1  0
 30 53  1  0
 31 54  1  0
 32 55  1  0
M  END
$$$$

     RDKit          3D

 55 57  0  0  0  0  0  0  0  0999 V2000
    9.5174    0.0270   -0.4187 N   0  0  0  0  0  0  0  0  0  0  0  0
    8.1674   -0.3071   -0.7058 C   0  0  0  0  0  0  0  0  0  0  0  0
    7.7925   -1.5250   -1.1418 N   0  0  0  0  0  0  0  0  0  0  0  0
    6.5031   -1.7857   -1.3973 C   0  0  0  0  0  0  0  0  0  0  0  0
    6.1407   -2.9159   -1.8041 O   0  0  0  0  0  0  0  0  0  0  0  0
    5.5215   -0.8136   -1.2210 C   0  0  0  0  0  0  0  0  0  0  0  0
    5.9455    0.4182   -0.7740 C   0  0  0  0  0  0  0  0  0  0  0  0
    7.2486    0.6593   -0.5229 N   0  0  0  0  0  0  0  0  0  0  0  0
    4.9320    1.4165   -0.5949 N   0  0  0  0  0  0  0  0  0  0  0  0
    3.5936    1.2495   -1.0698 C   0  0  0  0  0  0  0  0  0  0  0  0
    3.1399   -0.2085   -0.8916 C   0  0  2  0  0  0  0  0  0  0  0  0
    3.1659   -0.4671    0.6193 C   0  0  0  0  0  0  0  0  0  0  0  0
    2.3036    0.3915    1.3575 N   0  0  0  0  0  0  0  0  0  0  0  0
    0.8963    0.3914    1.2863 C   0  0  0  0  0  0  0  0  0  0  0  0
    0.1789   -0.5707    0.6265 C   0  0  0  0  0  0  0  0  0  0  0  0
   -1.1995   -0.5513    0.5562 C   0  0  0  0  0  0  0  0  0  0  0  0
   -1.9020    0.4619    1.1642 C   0  0  0  0  0  0  0  0  0  0  0  0
   -3.3507    0.5315    1.1218 C   0  0  0  0  0  0  0  0  0  0  0  0
   -3.9477    1.4782    1.7027 O   0  0  0  0  0  0  0  0  0  0  0  0
   -4.1083   -0.4444    0.4397 N   0  0  0  0  0  0  0  0  0  0  0  0
   -5.5749   -0.3022    0.4437 C   0  0  1  0  0  0  0  0  0  0  0  0
   -5.9885   -0.1822   -0.9930 C   0  0  0  0  0  0  0  0  0  0  0  0
   -7.4612   -0.0251   -1.2017 C   0  0  0  0  0  0  0  0  0  0  0  0
   -8.0191    1.1751   -0.5619 C   0  0  0  0  0  0  0  0  0  0  0  0
   -7.3449    2.0124    0.0690 O   0  0  0  0  0  0  0  0  0  0  0  0
   -9.4053    1.4247   -0.6490 O   0  0  0  0  0  0  0  0  0  0  0  0
   -6.1287   -1.5116    1.1002 C   0  0  0  0  0  0  0  0  0  0  0  0
   -5.3643   -2.4208    1.4938 O   0  0  0  0  0  0  0  0  0  0  0  0
   -7.4816   -1.6486    1.2854 O   0  0  0  0  0  0  0  0  0  0  0  0
   -1.2153    1.4566    1.8435 C   0  0  0  0  0  0  0  0  0  0  0  0
    0.1524    1.3973    1.8873 C   0  0  0  0  0  0  0  0  0  0  0  0
    4.1632   -1.0451   -1.4760 N   0  0  0  0  0  0  0  0  0  0  0  0
   10.0929    0.3965   -1.2063 H   0  0  0  0  0  0  0  0  0  0  0  0
    9.9424   -0.0798    0.5212 H   0  0  0  0  0  0  0  0  0  0  0  0
    7.5232    1.6258   -0.1799 H   0  0  0  0  0  0  0  0  0  0  0  0
    5.2120    2.2886   -0.0947 H   0  0  0  0  0  0  0  0  0  0  0  0
    2.9113    1.9213   -0.4937 H   0  0  0  0  0  0  0  0  0  0  0  0
    3.5051    1.5383   -2.1317 H   0  0  0  0  0  0  0  0  0  0  0  0
    2.1636   -0.3389   -1.3433 H   0  0  0  0  0  0  0  0  0  0  0  0
    2.9522   -1.5507    0.7704 H   0  0  0  0  0  0  0  0  0  0  0  0
    4.2051   -0.3323    0.9785 H   0  0  0  0  0  0  0  0  0  0  0  0
    2.7544    1.0980    2.0235 H   0  0  0  0  0  0  0  0  0  0  0  0
    0.6792   -1.3963    0.1374 H   0  0  0  0  0  0  0  0  0  0  0  0
   -1.6867   -1.3352    0.0241 H   0  0  0  0  0  0  0  0  0  0  0  0
   -3.6907   -1.2627   -0.0684 H   0  0  0  0  0  0  0  0  0  0  0  0
   -5.8212    0.5984    1.0196 H   0  0  0  0  0  0  0  0  0  0  0  0
   -5.5821   -1.0514   -1.5511 H   0  0  0  0  0  0  0  0  0  0  0  0
   -5.4421    0.7032   -1.4330 H   0  0  0  0  0  0  0  0  0  0  0  0
   -7.9765   -0.9399   -0.8249 H   0  0  0  0  0  0  0  0  0  0  0  0
   -7.6937    0.0246   -2.2982 H   0  0  0  0  0  0  0  0  0  0  0  0
   -9.8373    2.0262    0.0511 H   0  0  0  0  0  0  0  0  0  0  0  0
   -7.8773   -2.3760    1.8845 H   0  0  0  0  0  0  0  0  0  0  0  0
   -1.7852    2.2442    2.3148 H   0  0  0  0  0  0  0  0  0  0  0  0
    0.7085    2.1746    2.4192 H   0  0  0  0  0  0  0  0  0  0  0  0
    3.8722   -1.8287   -2.0925 H   0  0  0  0  0  0  0  0  0  0  0  0
  1  2  1  0
  2  3  2  0
  3  4  1  0
  4  5  2  0
  4  6  1  0
  6  7  2  0
  7  8  1  0
  7  9  1  0
  9 10  1  0
 10 11  1  0
 11 12  1  0
 12 13  1  0
 13 14  1  0
 14 15  2  0
 15 16  1  0
 16 17  2  0
 17 18  1  0
 18 19  2  0
 18 20  1  0
 20 21  1  0
 21 22  1  0
 22 23  1  0
 23 24  1  0
 24 25  2  0
 24 26  1  0
 21 27  1  0
 27 28  2  0
 27 29  1  0
 17 30  1  0
 30 31  2  0
 11 32  1  0
  8  2  1  0
 31 14  1  0
 32  6  1  0
  1 33  1  0
  1 34  1  0
  8 35  1  0
  9 36  1  0
 10 37  1  0
 10 38  1  0
 11 39  1  6
 12 40  1  0
 12 41  1  0
 13 42  1  0
 15 43  1  0
 16 44  1  0
 20 45  1  0
 21 46  1  1
 22 47  1  0
 22 48  1  0
 23 49  1  0
 23 50  1  0
 26 51  1  0
 29 52  1  0
 30 53  1  0
 31 54  1  0
 32 55  1  0
M  END
$$$$

     RDKit          3D

 55 57  0  0  0  0  0  0  0  0999 V2000
   -8.2081    2.7847    0.6483 N   0  0  0  0  0  0  0  0  0  0  0  0
   -7.3744    1.7585    0.1080 C   0  0  0  0  0  0  0  0  0  0  0  0
   -7.2683    1.5135   -1.2109 N   0  0  0  0  0  0  0  0  0  0  0  0
   -6.4924    0.5584   -1.7406 C   0  0  0  0  0  0  0  0  0  0  0  0
   -6.4125    0.3511   -2.9869 O   0  0  0  0  0  0  0  0  0  0  0  0
   -5.7506   -0.2304   -0.8870 C   0  0  0  0  0  0  0  0  0  0  0  0
   -5.8357   -0.0058    0.4809 C   0  0  0  0  0  0  0  0  0  0  0  0
   -6.6424    0.9788    0.9377 N   0  0  0  0  0  0  0  0  0  0  0  0
   -5.0656   -0.8239    1.3506 N   0  0  0  0  0  0  0  0  0  0  0  0
   -4.7320   -2.1580    0.9471 C   0  0  0  0  0  0  0  0  0  0  0  0
   -4.2311   -2.1888   -0.4746 C   0  0  2  0  0  0  0  0  0  0  0  0
   -2.7031   -2.0600   -0.5340 C   0  0  0  0  0  0  0  0  0  0  0  0
   -2.2522   -0.8380    0.0460 N   0  0  0  0  0  0  0  0  0  0  0  0
   -0.8864   -0.4715    0.1183 C   0  0  0  0  0  0  0  0  0  0  0  0
   -0.5145    0.7390    0.6687 C   0  0  0  0  0  0  0  0  0  0  0  0
    0.7849    1.1605    0.7714 C   0  0  0  0  0  0  0  0  0  0  0  0
    1.8006    0.3421    0.3029 C   0  0  0  0  0  0  0  0  0  0  0  0
    3.1990    0.7729    0.3978 C   0  0  0  0  0  0  0  0  0  0  0  0
    3.4557    1.8738    0.9346 O   0  0  0  0  0  0  0  0  0  0  0  0
    4.2687   -0.0012   -0.0911 N   0  0  0  0  0  0  0  0  0  0  0  0
    5.6697    0.4627    0.0171 C   0  0  1  0  0  0  0  0  0  0  0  0
    6.4249   -0.5067    0.8694 C   0  0  0  0  0  0  0  0  0  0  0  0
    7.8696   -0.1628    1.0654 C   0  0  0  0  0  0  0  0  0  0  0  0
    8.0739    1.1367    1.7258 C   0  0  0  0  0  0  0  0  0  0  0  0
    9.2751    1.5394    1.8317 O   0  0  0  0  0  0  0  0  0  0  0  0
    7.0840    1.9396    2.2321 O   0  0  0  0  0  0  0  0  0  0  0  0
    6.1866    0.5848   -1.3604 C   0  0  0  0  0  0  0  0  0  0  0  0
    5.4642    0.2857   -2.3375 O   0  0  0  0  0  0  0  0  0  0  0  0
    7.4697    1.0295   -1.6043 O   0  0  0  0  0  0  0  0  0  0  0  0
    1.4386   -0.8650   -0.2467 C   0  0  0  0  0  0  0  0  0  0  0  0
    0.1315   -1.2746   -0.3431 C   0  0  0  0  0  0  0  0  0  0  0  0
   -4.8973   -1.2665   -1.3492 N   0  0  0  0  0  0  0  0  0  0  0  0
   -9.2174    2.7041    0.8131 H   0  0  0  0  0  0  0  0  0  0  0  0
   -7.7492    3.6889    0.8942 H   0  0  0  0  0  0  0  0  0  0  0  0
   -6.6787    1.1174    1.9872 H   0  0  0  0  0  0  0  0  0  0  0  0
   -4.7802   -0.3923    2.2590 H   0  0  0  0  0  0  0  0  0  0  0  0
   -5.6456   -2.8126    1.0000 H   0  0  0  0  0  0  0  0  0  0  0  0
   -3.9472   -2.6203    1.5806 H   0  0  0  0  0  0  0  0  0  0  0  0
   -4.4643   -3.2337   -0.8513 H   0  0  0  0  0  0  0  0  0  0  0  0
   -2.3097   -2.9491    0.0055 H   0  0  0  0  0  0  0  0  0  0  0  0
   -2.3875   -2.2002   -1.5912 H   0  0  0  0  0  0  0  0  0  0  0  0
   -2.9646   -0.1838    0.4363 H   0  0  0  0  0  0  0  0  0  0  0  0
   -1.3128    1.3989    1.0451 H   0  0  0  0  0  0  0  0  0  0  0  0
    1.0627    2.1091    1.2041 H   0  0  0  0  0  0  0  0  0  0  0  0
    4.0802   -0.9151   -0.5376 H   0  0  0  0  0  0  0  0  0  0  0  0
    5.6387    1.4560    0.5298 H   0  0  0  0  0  0  0  0  0  0  0  0
    6.3670   -1.5521    0.4564 H   0  0  0  0  0  0  0  0  0  0  0  0
    5.9626   -0.5741    1.8925 H   0  0  0  0  0  0  0  0  0  0  0  0
    8.4332   -0.1911    0.0893 H   0  0  0  0  0  0  0  0  0  0  0  0
    8.3267   -0.9404    1.7552 H   0  0  0  0  0  0  0  0  0  0  0  0
    7.2742    2.9146    2.4578 H   0  0  0  0  0  0  0  0  0  0  0  0
    7.7139    1.3531   -2.5116 H   0  0  0  0  0  0  0  0  0  0  0  0
    2.1947   -1.5636   -0.6373 H   0  0  0  0  0  0  0  0  0  0  0  0
   -0.1655   -2.2276   -0.7754 H   0  0  0  0  0  0  0  0  0  0  0  0
   -4.7613   -1.3445   -2.3796 H   0  0  0  0  0  0  0  0  0  0  0  0
  1  2  1  0
  2  3  2  0
  3  4  1  0
  4  5  2  0
  4  6  1  0
  6  7  2  0
  7  8  1  0
  7  9  1  0
  9 10  1  0
 10 11  1  0
 11 12  1  0
 12 13  1  0
 13 14  1  0
 14 15  2  0
 15 16  1  0
 16 17  2  0
 17 18  1  0
 18 19  2  0
 18 20  1  0
 20 21  1  0
 21 22  1  0
 22 23  1  0
 23 24  1  0
 24 25  2  0
 24 26  1  0
 21 27  1  0
 27 28  2  0
 27 29  1  0
 17 30  1  0
 30 31  2  0
 11 32  1  0
  8  2  1  0
 31 14  1  0
 32  6  1  0
  1 33  1  0
  1 34  1  0
  8 35  1  0
  9 36  1  0
 10 37  1  0
 10 38  1  0
 11 39  1  6
 12 40  1  0
 12 41  1  0
 13 42  1  0
 15 43  1  0
 16 44  1  0
 20 45  1  0
 21 46  1  1
 22 47  1  0
 22 48  1  0
 23 49  1  0
 23 50  1  0
 26 51  1  0
 29 52  1  0
 30 53  1  0
 31 54  1  0
 32 55  1  0
M  END
$$$$

     RDKit          3D

 55 57  0  0  0  0  0  0  0  0999 V2000
   10.4613   -0.2992   -0.3066 N   0  0  0  0  0  0  0  0  0  0  0  0
    9.1005   -0.1079    0.1020 C   0  0  0  0  0  0  0  0  0  0  0  0
    8.8186   -0.0405    1.4186 N   0  0  0  0  0  0  0  0  0  0  0  0
    7.5249    0.1405    1.7834 C   0  0  0  0  0  0  0  0  0  0  0  0
    7.1862    0.2134    3.0108 O   0  0  0  0  0  0  0  0  0  0  0  0
    6.5018    0.2562    0.8673 C   0  0  0  0  0  0  0  0  0  0  0  0
    6.8348    0.1805   -0.4777 C   0  0  0  0  0  0  0  0  0  0  0  0
    8.1376   -0.0005   -0.8347 N   0  0  0  0  0  0  0  0  0  0  0  0
    5.8028    0.2919   -1.4460 N   0  0  0  0  0  0  0  0  0  0  0  0
    4.4638    0.7251   -1.0573 C   0  0  0  0  0  0  0  0  0  0  0  0
    4.1423    0.0329    0.2576 C   0  0  2  0  0  0  0  0  0  0  0  0
    2.7409    0.2422    0.7094 C   0  0  0  0  0  0  0  0  0  0  0  0
    1.8168   -0.2633   -0.2459 N   0  0  0  0  0  0  0  0  0  0  0  0
    0.4007   -0.1931   -0.0877 C   0  0  0  0  0  0  0  0  0  0  0  0
   -0.4612   -0.7463   -0.9967 C   0  0  0  0  0  0  0  0  0  0  0  0
   -1.8497   -0.6625   -0.8095 C   0  0  0  0  0  0  0  0  0  0  0  0
   -2.3991   -0.0324    0.2747 C   0  0  0  0  0  0  0  0  0  0  0  0
   -3.8329    0.0699    0.5124 C   0  0  0  0  0  0  0  0  0  0  0  0
   -4.2704    0.6968    1.5385 O   0  0  0  0  0  0  0  0  0  0  0  0
   -4.7511   -0.5140   -0.3710 N   0  0  0  0  0  0  0  0  0  0  0  0
   -6.1879   -0.3799   -0.0712 C   0  0  1  0  0  0  0  0  0  0  0  0
   -6.8856    0.1700   -1.2676 C   0  0  0  0  0  0  0  0  0  0  0  0
   -8.3486    0.3414   -0.9952 C   0  0  0  0  0  0  0  0  0  0  0  0
   -8.5056    1.2916    0.1460 C   0  0  0  0  0  0  0  0  0  0  0  0
   -7.9034    2.4169    0.0394 O   0  0  0  0  0  0  0  0  0  0  0  0
   -9.2626    0.9766    1.2623 O   0  0  0  0  0  0  0  0  0  0  0  0
   -6.6693   -1.7634    0.2123 C   0  0  0  0  0  0  0  0  0  0  0  0
   -5.8802   -2.7527    0.0935 O   0  0  0  0  0  0  0  0  0  0  0  0
   -7.9635   -2.0550    0.6102 O   0  0  0  0  0  0  0  0  0  0  0  0
   -1.5063    0.5314    1.1968 C   0  0  0  0  0  0  0  0  0  0  0  0
   -0.1473    0.4498    1.0159 C   0  0  0  0  0  0  0  0  0  0  0  0
    5.1354    0.4470    1.2194 N   0  0  0  0  0  0  0  0  0  0  0  0
   11.1008    0.5226   -0.2037 H   0  0  0  0  0  0  0  0  0  0  0  0
   10.7887   -1.2145   -0.6889 H   0  0  0  0  0  0  0  0  0  0  0  0
    8.3913   -0.0539   -1.8651 H   0  0  0  0  0  0  0  0  0  0  0  0
    5.9873    0.0669   -2.4536 H   0  0  0  0  0  0  0  0  0  0  0  0
    3.7135    0.4398   -1.8064 H   0  0  0  0  0  0  0  0  0  0  0  0
    4.4446    1.8336   -0.8587 H   0  0  0  0  0  0  0  0  0  0  0  0
    4.3163   -1.0625    0.0546 H   0  0  0  0  0  0  0  0  0  0  0  0
    2.6151   -0.3877    1.6393 H   0  0  0  0  0  0  0  0  0  0  0  0
    2.5411    1.2830    1.0305 H   0  0  0  0  0  0  0  0  0  0  0  0
    2.1956   -0.7116   -1.1099 H   0  0  0  0  0  0  0  0  0  0  0  0
   -0.0496   -1.2577   -1.8671 H   0  0  0  0  0  0  0  0  0  0  0  0
   -2.5195   -1.1098   -1.5373 H   0  0  0  0  0  0  0  0  0  0  0  0
   -4.5110   -1.0335   -1.2173 H   0  0  0  0  0  0  0  0  0  0  0  0
   -6.2892    0.2243    0.8311 H   0  0  0  0  0  0  0  0  0  0  0  0
   -6.7035   -0.5270   -2.1245 H   0  0  0  0  0  0  0  0  0  0  0  0
   -6.4349    1.1872   -1.4826 H   0  0  0  0  0  0  0  0  0  0  0  0
   -8.8099    0.8104   -1.9093 H   0  0  0  0  0  0  0  0  0  0  0  0
   -8.8651   -0.5862   -0.8197 H   0  0  0  0  0  0  0  0  0  0  0  0
   -9.5235    1.7075    1.9284 H   0  0  0  0  0  0  0  0  0  0  0  0
   -8.1881   -2.7930    1.2373 H   0  0  0  0  0  0  0  0  0  0  0  0
   -1.9406    1.0384    2.0703 H   0  0  0  0  0  0  0  0  0  0  0  0
    0.5601    0.8734    1.7107 H   0  0  0  0  0  0  0  0  0  0  0  0
    4.9367    0.8721    2.1382 H   0  0  0  0  0  0  0  0  0  0  0  0
  1  2  1  0
  2  3  2  0
  3  4  1  0
  4  5  2  0
  4  6  1  0
  6  7  2  0
  7  8  1  0
  7  9  1  0
  9 10  1  0
 10 11  1  0
 11 12  1  0
 12 13  1  0
 13 14  1  0
 14 15  2  0
 15 16  1  0
 16 17  2  0
 17 18  1  0
 18 19  2  0
 18 20  1  0
 20 21  1  0
 21 22  1  0
 22 23  1  0
 23 24  1  0
 24 25  2  0
 24 26  1  0
 21 27  1  0
 27 28  2  0
 27 29  1  0
 17 30  1  0
 30 31  2  0
 11 32  1  0
  8  2  1  0
 31 14  1  0
 32  6  1  0
  1 33  1  0
  1 34  1  0
  8 35  1  0
  9 36  1  0
 10 37  1  0
 10 38  1  0
 11 39  1  6
 12 40  1  0
 12 41  1  0
 13 42  1  0
 15 43  1  0
 16 44  1  0
 20 45  1  0
 21 46  1  1
 22 47  1  0
 22 48  1  0
 23 49  1  0
 23 50  1  0
 26 51  1  0
 29 52  1  0
 30 53  1  0
 31 54  1  0
 32 55  1  0
M  END
$$$$

     RDKit          3D

 55 57  0  0  0  0  0  0  0  0999 V2000
    9.3768    0.1224    0.9313 N   0  0  0  0  0  0  0  0  0  0  0  0
    8.0170   -0.2387    1.0405 C   0  0  0  0  0  0  0  0  0  0  0  0
    7.5032   -0.9068    2.0907 N   0  0  0  0  0  0  0  0  0  0  0  0
    6.2096   -1.2447    2.1848 C   0  0  0  0  0  0  0  0  0  0  0  0
    5.7261   -1.8777    3.1810 O   0  0  0  0  0  0  0  0  0  0  0  0
    5.3675   -0.8862    1.1491 C   0  0  0  0  0  0  0  0  0  0  0  0
    5.8598   -0.2001    0.0554 C   0  0  0  0  0  0  0  0  0  0  0  0
    7.1771    0.1105    0.0230 N   0  0  0  0  0  0  0  0  0  0  0  0
    4.9872    0.1644   -1.0069 N   0  0  0  0  0  0  0  0  0  0  0  0
    3.7770   -0.6507   -1.1441 C   0  0  0  0  0  0  0  0  0  0  0  0
    3.0815   -0.5657    0.2014 C   0  0  2  0  0  0  0  0  0  0  0  0
    2.9105    0.9086    0.5143 C   0  0  0  0  0  0  0  0  0  0  0  0
    2.1120    1.5145   -0.5125 N   0  0  0  0  0  0  0  0  0  0  0  0
    0.7291    1.2651   -0.7316 C   0  0  0  0  0  0  0  0  0  0  0  0
   -0.0569    0.5984    0.1829 C   0  0  0  0  0  0  0  0  0  0  0  0
   -1.4139    0.3421   -0.0348 C   0  0  0  0  0  0  0  0  0  0  0  0
   -2.0215    0.7587   -1.1989 C   0  0  0  0  0  0  0  0  0  0  0  0
   -3.4519    0.5156   -1.4637 C   0  0  0  0  0  0  0  0  0  0  0  0
   -3.8355    0.6775   -2.6749 O   0  0  0  0  0  0  0  0  0  0  0  0
   -4.3623    0.1284   -0.4602 N   0  0  0  0  0  0  0  0  0  0  0  0
   -5.7525   -0.0982   -0.7730 C   0  0  1  0  0  0  0  0  0  0  0  0
   -6.2455   -1.4561   -0.4185 C   0  0  0  0  0  0  0  0  0  0  0  0
   -6.1466   -1.8342    1.0114 C   0  0  0  0  0  0  0  0  0  0  0  0
   -6.9283   -0.9401    1.8672 C   0  0  0  0  0  0  0  0  0  0  0  0
   -6.3980   -0.0038    2.5006 O   0  0  0  0  0  0  0  0  0  0  0  0
   -8.3124   -1.1064    2.0069 O   0  0  0  0  0  0  0  0  0  0  0  0
   -6.5578    1.0261   -0.2464 C   0  0  0  0  0  0  0  0  0  0  0  0
   -5.9900    2.0020    0.2974 O   0  0  0  0  0  0  0  0  0  0  0  0
   -7.9458    1.0510   -0.3280 O   0  0  0  0  0  0  0  0  0  0  0  0
   -1.2361    1.4287   -2.1207 C   0  0  0  0  0  0  0  0  0  0  0  0
    0.1006    1.6790   -1.9015 C   0  0  0  0  0  0  0  0  0  0  0  0
    3.9792   -1.1980    1.1570 N   0  0  0  0  0  0  0  0  0  0  0  0
   10.1084   -0.5850    0.7742 H   0  0  0  0  0  0  0  0  0  0  0  0
    9.6078    1.1395    1.0162 H   0  0  0  0  0  0  0  0  0  0  0  0
    7.5131    0.6300   -0.8204 H   0  0  0  0  0  0  0  0  0  0  0  0
    5.2436    0.9543   -1.6007 H   0  0  0  0  0  0  0  0  0  0  0  0
    4.0966   -1.7040   -1.2676 H   0  0  0  0  0  0  0  0  0  0  0  0
    3.1625   -0.3614   -1.9890 H   0  0  0  0  0  0  0  0  0  0  0  0
    2.1021   -1.0341    0.1700 H   0  0  0  0  0  0  0  0  0  0  0  0
    3.8807    1.3975    0.5795 H   0  0  0  0  0  0  0  0  0  0  0  0
    2.4381    1.0158    1.5312 H   0  0  0  0  0  0  0  0  0  0  0  0
    2.5680    2.2066   -1.1725 H   0  0  0  0  0  0  0  0  0  0  0  0
    0.3602    0.2554    1.1113 H   0  0  0  0  0  0  0  0  0  0  0  0
   -1.9997   -0.1902    0.7181 H   0  0  0  0  0  0  0  0  0  0  0  0
   -4.0050    0.0080    0.5255 H   0  0  0  0  0  0  0  0  0  0  0  0
   -5.7955    0.0146   -1.9230 H   0  0  0  0  0  0  0  0  0  0  0  0
   -5.7612   -2.1923   -1.1046 H   0  0  0  0  0  0  0  0  0  0  0  0
   -7.3511   -1.4744   -0.6745 H   0  0  0  0  0  0  0  0  0  0  0  0
   -5.0725   -1.8760    1.3581 H   0  0  0  0  0  0  0  0  0  0  0  0
   -6.5358   -2.8966    1.0878 H   0  0  0  0  0  0  0  0  0  0  0  0
   -8.9259   -0.3748    2.3335 H   0  0  0  0  0  0  0  0  0  0  0  0
   -8.4737    1.9114   -0.3626 H   0  0  0  0  0  0  0  0  0  0  0  0
   -1.7367    1.7546   -3.0452 H   0  0  0  0  0  0  0  0  0  0  0  0
    0.6885    2.2059   -2.6407 H   0  0  0  0  0  0  0  0  0  0  0  0
    3.6284   -1.8907    1.8671 H   0  0  0  0  0  0  0  0  0  0  0  0
  1  2  1  0
  2  3  2  0
  3  4  1  0
  4  5  2  0
  4  6  1  0
  6  7  2  0
  7  8  1  0
  7  9  1  0
  9 10  1  0
 10 11  1  0
 11 12  1  0
 12 13  1  0
 13 14  1  0
 14 15  2  0
 15 16  1  0
 16 17  2  0
 17 18  1  0
 18 19  2  0
 18 20  1  0
 20 21  1  0
 21 22  1  0
 22 23  1  0
 23 24  1  0
 24 25  2  0
 24 26  1  0
 21 27  1  0
 27 28  2  0
 27 29  1  0
 17 30  1  0
 30 31  2  0
 11 32  1  0
  8  2  1  0
 31 14  1  0
 32  6  1  0
  1 33  1  0
  1 34  1  0
  8 35  1  0
  9 36  1  0
 10 37  1  0
 10 38  1  0
 11 39  1  6
 12 40  1  0
 12 41  1  0
 13 42  1  0
 15 43  1  0
 16 44  1  0
 20 45  1  0
 21 46  1  6
 22 47  1  0
 22 48  1  0
 23 49  1  0
 23 50  1  0
 26 51  1  0
 29 52  1  0
 30 53  1  0
 31 54  1  0
 32 55  1  0
M  END
$$$$

     RDKit          3D

 55 57  0  0  0  0  0  0  0  0999 V2000
    9.1843    1.2937    1.2710 N   0  0  0  0  0  0  0  0  0  0  0  0
    7.7942    1.0174    1.1567 C   0  0  0  0  0  0  0  0  0  0  0  0
    6.8635    1.9797    1.2544 N   0  0  0  0  0  0  0  0  0  0  0  0
    5.5444    1.7501    1.1524 C   0  0  0  0  0  0  0  0  0  0  0  0
    4.6825    2.6623    1.2460 O   0  0  0  0  0  0  0  0  0  0  0  0
    5.1140    0.4484    0.9339 C   0  0  0  0  0  0  0  0  0  0  0  0
    6.0607   -0.5547    0.8308 C   0  0  0  0  0  0  0  0  0  0  0  0
    7.3551   -0.2463    0.9436 N   0  0  0  0  0  0  0  0  0  0  0  0
    5.6079   -1.8721    0.6098 N   0  0  0  0  0  0  0  0  0  0  0  0
    4.2210   -2.2346    0.7736 C   0  0  0  0  0  0  0  0  0  0  0  0
    3.2704   -1.1209    0.3939 C   0  0  2  0  0  0  0  0  0  0  0  0
    3.2293   -1.0869   -1.1179 C   0  0  0  0  0  0  0  0  0  0  0  0
    2.3210   -0.0374   -1.5165 N   0  0  0  0  0  0  0  0  0  0  0  0
    0.9280   -0.1823   -1.2894 C   0  0  0  0  0  0  0  0  0  0  0  0
    0.3330   -1.3719   -0.9501 C   0  0  0  0  0  0  0  0  0  0  0  0
   -1.0331   -1.4908   -0.7125 C   0  0  0  0  0  0  0  0  0  0  0  0
   -1.8294   -0.3809   -0.8192 C   0  0  0  0  0  0  0  0  0  0  0  0
   -3.2538   -0.4476   -0.5754 C   0  0  0  0  0  0  0  0  0  0  0  0
   -3.7037   -1.4793   -0.0074 O   0  0  0  0  0  0  0  0  0  0  0  0
   -4.1871    0.5613   -0.9278 N   0  0  0  0  0  0  0  0  0  0  0  0
   -5.6203    0.4094   -0.6395 C   0  0  1  0  0  0  0  0  0  0  0  0
   -6.0963    1.4944    0.2581 C   0  0  0  0  0  0  0  0  0  0  0  0
   -7.5294    1.4658    0.6344 C   0  0  0  0  0  0  0  0  0  0  0  0
   -7.9926    0.2783    1.3501 C   0  0  0  0  0  0  0  0  0  0  0  0
   -9.2175    0.2116    1.6500 O   0  0  0  0  0  0  0  0  0  0  0  0
   -7.1675   -0.7485    1.7039 O   0  0  0  0  0  0  0  0  0  0  0  0
   -6.3966    0.2602   -1.8800 C   0  0  0  0  0  0  0  0  0  0  0  0
   -5.8944    0.2703   -3.0434 O   0  0  0  0  0  0  0  0  0  0  0  0
   -7.7733    0.0944   -1.8234 O   0  0  0  0  0  0  0  0  0  0  0  0
   -1.2630    0.8219   -1.1577 C   0  0  0  0  0  0  0  0  0  0  0  0
    0.1028    0.9415   -1.3949 C   0  0  0  0  0  0  0  0  0  0  0  0
    3.7273    0.1793    0.8247 N   0  0  0  0  0  0  0  0  0  0  0  0
    9.5144    1.9624    1.9974 H   0  0  0  0  0  0  0  0  0  0  0  0
    9.8931    0.8497    0.6514 H   0  0  0  0  0  0  0  0  0  0  0  0
    8.0685   -1.0070    0.8654 H   0  0  0  0  0  0  0  0  0  0  0  0
    6.2804   -2.6232    0.3190 H   0  0  0  0  0  0  0  0  0  0  0  0
    3.9917   -3.1708    0.2150 H   0  0  0  0  0  0  0  0  0  0  0  0
    4.0392   -2.4756    1.8422 H   0  0  0  0  0  0  0  0  0  0  0  0
    2.2761   -1.3644    0.7859 H   0  0  0  0  0  0  0  0  0  0  0  0
    2.8917   -2.0881   -1.4635 H   0  0  0  0  0  0  0  0  0  0  0  0
    4.2456   -0.9261   -1.5472 H   0  0  0  0  0  0  0  0  0  0  0  0
    2.7282    0.8081   -1.9669 H   0  0  0  0  0  0  0  0  0  0  0  0
    0.9343   -2.2697   -0.8729 H   0  0  0  0  0  0  0  0  0  0  0  0
   -1.4700   -2.4537   -0.4442 H   0  0  0  0  0  0  0  0  0  0  0  0
   -3.8166    1.4128   -1.4006 H   0  0  0  0  0  0  0  0  0  0  0  0
   -5.7204   -0.5552   -0.0988 H   0  0  0  0  0  0  0  0  0  0  0  0
   -5.5060    1.5594    1.2095 H   0  0  0  0  0  0  0  0  0  0  0  0
   -5.9094    2.4805   -0.2394 H   0  0  0  0  0  0  0  0  0  0  0  0
   -8.1826    1.7310   -0.2244 H   0  0  0  0  0  0  0  0  0  0  0  0
   -7.6797    2.3322    1.3497 H   0  0  0  0  0  0  0  0  0  0  0  0
   -7.3702   -1.2945    2.5514 H   0  0  0  0  0  0  0  0  0  0  0  0
   -8.3030   -0.3557   -2.5781 H   0  0  0  0  0  0  0  0  0  0  0  0
   -1.8270    1.7435   -1.2605 H   0  0  0  0  0  0  0  0  0  0  0  0
    0.5361    1.8994   -1.6616 H   0  0  0  0  0  0  0  0  0  0  0  0
    3.0044    0.9188    1.0547 H   0  0  0  0  0  0  0  0  0  0  0  0
  1  2  1  0
  2  3  2  0
  3  4  1  0
  4  5  2  0
  4  6  1  0
  6  7  2  0
  7  8  1  0
  7  9  1  0
  9 10  1  0
 10 11  1  0
 11 12  1  0
 12 13  1  0
 13 14  1  0
 14 15  2  0
 15 16  1  0
 16 17  2  0
 17 18  1  0
 18 19  2  0
 18 20  1  0
 20 21  1  0
 21 22  1  0
 22 23  1  0
 23 24  1  0
 24 25  2  0
 24 26  1  0
 21 27  1  0
 27 28  2  0
 27 29  1  0
 17 30  1  0
 30 31  2  0
 11 32  1  0
  8  2  1  0
 31 14  1  0
 32  6  1  0
  1 33  1  0
  1 34  1  0
  8 35  1  0
  9 36  1  0
 10 37  1  0
 10 38  1  0
 11 39  1  1
 12 40  1  0
 12 41  1  0
 13 42  1  0
 15 43  1  0
 16 44  1  0
 20 45  1  0
 21 46  1  1
 22 47  1  0
 22 48  1  0
 23 49  1  0
 23 50  1  0
 26 51  1  0
 29 52  1  0
 30 53  1  0
 31 54  1  0
 32 55  1  0
M  END
$$$$

     RDKit          3D

 55 57  0  0  0  0  0  0  0  0999 V2000
   -8.5266    2.4769    1.4438 N   0  0  0  0  0  0  0  0  0  0  0  0
   -7.5271    1.4753    1.2974 C   0  0  0  0  0  0  0  0  0  0  0  0
   -7.3049    0.5706    2.2682 N   0  0  0  0  0  0  0  0  0  0  0  0
   -6.3568   -0.3942    2.1534 C   0  0  0  0  0  0  0  0  0  0  0  0
   -6.1508   -1.2340    3.0547 O   0  0  0  0  0  0  0  0  0  0  0  0
   -5.5860   -0.4692    1.0175 C   0  0  0  0  0  0  0  0  0  0  0  0
   -5.8100    0.4557    0.0203 C   0  0  0  0  0  0  0  0  0  0  0  0
   -6.7581    1.3811    0.1926 N   0  0  0  0  0  0  0  0  0  0  0  0
   -5.0072    0.3589   -1.1441 N   0  0  0  0  0  0  0  0  0  0  0  0
   -3.7559   -0.3557   -1.2423 C   0  0  0  0  0  0  0  0  0  0  0  0
   -3.4692   -1.2593   -0.0905 C   0  0  2  0  0  0  0  0  0  0  0  0
   -3.0226   -2.5947   -0.7037 C   0  0  0  0  0  0  0  0  0  0  0  0
   -1.8515   -2.3516   -1.5032 N   0  0  0  0  0  0  0  0  0  0  0  0
   -0.6139   -1.9726   -0.9510 C   0  0  0  0  0  0  0  0  0  0  0  0
   -0.3288   -2.0666    0.3989 C   0  0  0  0  0  0  0  0  0  0  0  0
    0.9107   -1.6654    0.8975 C   0  0  0  0  0  0  0  0  0  0  0  0
    1.8730   -1.1678    0.0499 C   0  0  0  0  0  0  0  0  0  0  0  0
    3.1907   -0.7569    0.5654 C   0  0  0  0  0  0  0  0  0  0  0  0
    3.6134   -1.2333    1.6498 O   0  0  0  0  0  0  0  0  0  0  0  0
    4.0099    0.1644   -0.1204 N   0  0  0  0  0  0  0  0  0  0  0  0
    5.3527    0.5429    0.4507 C   0  0  1  0  0  0  0  0  0  0  0  0
    6.2882    0.3606   -0.6927 C   0  0  0  0  0  0  0  0  0  0  0  0
    7.7055    0.6290   -0.4830 C   0  0  0  0  0  0  0  0  0  0  0  0
    8.0615    2.0095   -0.1700 C   0  0  0  0  0  0  0  0  0  0  0  0
    8.9230    2.2558    0.7496 O   0  0  0  0  0  0  0  0  0  0  0  0
    7.4925    3.1029   -0.8482 O   0  0  0  0  0  0  0  0  0  0  0  0
    5.2323    1.9332    0.8834 C   0  0  0  0  0  0  0  0  0  0  0  0
    4.2540    2.6295    0.4637 O   0  0  0  0  0  0  0  0  0  0  0  0
    6.1372    2.5077    1.7360 O   0  0  0  0  0  0  0  0  0  0  0  0
    1.5836   -1.0766   -1.2911 C   0  0  0  0  0  0  0  0  0  0  0  0
    0.3686   -1.4699   -1.7800 C   0  0  0  0  0  0  0  0  0  0  0  0
   -4.5709   -1.4410    0.8130 N   0  0  0  0  0  0  0  0  0  0  0  0
   -9.2749    2.5915    0.7258 H   0  0  0  0  0  0  0  0  0  0  0  0
   -8.5626    3.1320    2.2553 H   0  0  0  0  0  0  0  0  0  0  0  0
   -6.9359    2.0874   -0.5586 H   0  0  0  0  0  0  0  0  0  0  0  0
   -5.3857    0.8649   -1.9962 H   0  0  0  0  0  0  0  0  0  0  0  0
   -2.9311    0.4052   -1.3640 H   0  0  0  0  0  0  0  0  0  0  0  0
   -3.7828   -0.8936   -2.2208 H   0  0  0  0  0  0  0  0  0  0  0  0
   -2.6395   -0.8181    0.4955 H   0  0  0  0  0  0  0  0  0  0  0  0
   -3.8568   -2.9596   -1.3332 H   0  0  0  0  0  0  0  0  0  0  0  0
   -2.8653   -3.3316    0.1097 H   0  0  0  0  0  0  0  0  0  0  0  0
   -1.9075   -2.4604   -2.5634 H   0  0  0  0  0  0  0  0  0  0  0  0
   -1.0554   -2.4584    1.0986 H   0  0  0  0  0  0  0  0  0  0  0  0
    1.1055   -1.7515    1.9644 H   0  0  0  0  0  0  0  0  0  0  0  0
    3.6885    0.5775   -1.0116 H   0  0  0  0  0  0  0  0  0  0  0  0
    5.5468   -0.1004    1.3232 H   0  0  0  0  0  0  0  0  0  0  0  0
    6.1671   -0.7167   -1.0676 H   0  0  0  0  0  0  0  0  0  0  0  0
    5.9491    1.0103   -1.5794 H   0  0  0  0  0  0  0  0  0  0  0  0
    8.1251   -0.0410    0.3234 H   0  0  0  0  0  0  0  0  0  0  0  0
    8.2604    0.3644   -1.4492 H   0  0  0  0  0  0  0  0  0  0  0  0
    7.8668    4.0344   -0.6248 H   0  0  0  0  0  0  0  0  0  0  0  0
    6.2400    3.5076    1.8499 H   0  0  0  0  0  0  0  0  0  0  0  0
    2.3440   -0.6833   -1.9587 H   0  0  0  0  0  0  0  0  0  0  0  0
    0.1834   -1.3785   -2.8528 H   0  0  0  0  0  0  0  0  0  0  0  0
   -4.6360   -2.3274    1.3490 H   0  0  0  0  0  0  0  0  0  0  0  0
  1  2  1  0
  2  3  2  0
  3  4  1  0
  4  5  2  0
  4  6  1  0
  6  7  2  0
  7  8  1  0
  7  9  1  0
  9 10  1  0
 10 11  1  0
 11 12  1  0
 12 13  1  0
 13 14  1  0
 14 15  2  0
 15 16  1  0
 16 17  2  0
 17 18  1  0
 18 19  2  0
 18 20  1  0
 20 21  1  0
 21 22  1  0
 22 23  1  0
 23 24  1  0
 24 25  2  0
 24 26  1  0
 21 27  1  0
 27 28  2  0
 27 29  1  0
 17 30  1  0
 30 31  2  0
 11 32  1  0
  8  2  1  0
 31 14  1  0
 32  6  1  0
  1 33  1  0
  1 34  1  0
  8 35  1  0
  9 36  1  0
 10 37  1  0
 10 38  1  0
 11 39  1  1
 12 40  1  0
 12 41  1  0
 13 42  1  0
 15 43  1  0
 16 44  1  0
 20 45  1  0
 21 46  1  1
 22 47  1  0
 22 48  1  0
 23 49  1  0
 23 50  1  0
 26 51  1  0
 29 52  1  0
 30 53  1  0
 31 54  1  0
 32 55  1  0
M  END
$$$$

     RDKit          3D

 55 57  0  0  0  0  0  0  0  0999 V2000
  -10.1072    0.4144   -1.3340 N   0  0  0  0  0  0  0  0  0  0  0  0
   -8.7508    0.0487   -1.1589 C   0  0  0  0  0  0  0  0  0  0  0  0
   -8.1273   -0.6400   -2.1227 N   0  0  0  0  0  0  0  0  0  0  0  0
   -6.8383   -1.0093   -2.0005 C   0  0  0  0  0  0  0  0  0  0  0  0
   -6.2248   -1.6496   -2.8743 O   0  0  0  0  0  0  0  0  0  0  0  0
   -6.1380   -0.6671   -0.8453 C   0  0  0  0  0  0  0  0  0  0  0  0
   -6.8177    0.0394    0.1164 C   0  0  0  0  0  0  0  0  0  0  0  0
   -8.1088    0.3979   -0.0291 N   0  0  0  0  0  0  0  0  0  0  0  0
   -6.1143    0.3956    1.2989 N   0  0  0  0  0  0  0  0  0  0  0  0
   -4.6668    0.4223    1.2580 C   0  0  0  0  0  0  0  0  0  0  0  0
   -4.1202   -0.8054    0.5630 C   0  0  2  0  0  0  0  0  0  0  0  0
   -2.6440   -0.5714    0.2593 C   0  0  0  0  0  0  0  0  0  0  0  0
   -1.9043   -0.3400    1.4705 N   0  0  0  0  0  0  0  0  0  0  0  0
   -0.5227   -0.1118    1.4204 C   0  0  0  0  0  0  0  0  0  0  0  0
    0.2425    0.1422    2.5521 C   0  0  0  0  0  0  0  0  0  0  0  0
    1.6008    0.3583    2.4572 C   0  0  0  0  0  0  0  0  0  0  0  0
    2.2732    0.3363    1.2549 C   0  0  0  0  0  0  0  0  0  0  0  0
    3.7093    0.5669    1.1701 C   0  0  0  0  0  0  0  0  0  0  0  0
    4.3147    0.8275    2.2472 O   0  0  0  0  0  0  0  0  0  0  0  0
    4.4449    0.5174   -0.0151 N   0  0  0  0  0  0  0  0  0  0  0  0
    5.8898    0.7695    0.0385 C   0  0  1  0  0  0  0  0  0  0  0  0
    6.6456   -0.4146   -0.4586 C   0  0  0  0  0  0  0  0  0  0  0  0
    8.1302   -0.2146   -0.4171 C   0  0  0  0  0  0  0  0  0  0  0  0
    8.8071   -1.4744   -0.9050 C   0  0  0  0  0  0  0  0  0  0  0  0
    8.0829   -2.4344   -1.2514 O   0  0  0  0  0  0  0  0  0  0  0  0
   10.1784   -1.5658   -0.9672 O   0  0  0  0  0  0  0  0  0  0  0  0
    6.1230    1.9447   -0.8094 C   0  0  0  0  0  0  0  0  0  0  0  0
    5.1939    2.4767   -1.4473 O   0  0  0  0  0  0  0  0  0  0  0  0
    7.3762    2.4922   -0.9194 O   0  0  0  0  0  0  0  0  0  0  0  0
    1.5176    0.0850    0.1327 C   0  0  0  0  0  0  0  0  0  0  0  0
    0.1445   -0.1352    0.2115 C   0  0  0  0  0  0  0  0  0  0  0  0
   -4.7779   -1.0465   -0.6952 N   0  0  0  0  0  0  0  0  0  0  0  0
  -10.2946    1.3786   -1.7074 H   0  0  0  0  0  0  0  0  0  0  0  0
  -10.8457   -0.2698   -1.0917 H   0  0  0  0  0  0  0  0  0  0  0  0
   -8.5636    0.9381    0.7507 H   0  0  0  0  0  0  0  0  0  0  0  0
   -6.6137    0.6341    2.1800 H   0  0  0  0  0  0  0  0  0  0  0  0
   -4.2838    0.4269    2.2864 H   0  0  0  0  0  0  0  0  0  0  0  0
   -4.2998    1.3370    0.7545 H   0  0  0  0  0  0  0  0  0  0  0  0
   -4.1575   -1.6725    1.2533 H   0  0  0  0  0  0  0  0  0  0  0  0
   -2.2225   -1.4125   -0.3290 H   0  0  0  0  0  0  0  0  0  0  0  0
   -2.6309    0.3252   -0.4228 H   0  0  0  0  0  0  0  0  0  0  0  0
   -2.4024   -0.3442    2.3753 H   0  0  0  0  0  0  0  0  0  0  0  0
   -0.2565    0.1654    3.5046 H   0  0  0  0  0  0  0  0  0  0  0  0
    2.2123    0.5597    3.3456 H   0  0  0  0  0  0  0  0  0  0  0  0
    4.0050    0.3093   -0.9256 H   0  0  0  0  0  0  0  0  0  0  0  0
    6.1851    0.9763    1.1022 H   0  0  0  0  0  0  0  0  0  0  0  0
    6.3773   -0.5726   -1.5287 H   0  0  0  0  0  0  0  0  0  0  0  0
    6.4348   -1.3271    0.1499 H   0  0  0  0  0  0  0  0  0  0  0  0
    8.4639    0.0377    0.6014 H   0  0  0  0  0  0  0  0  0  0  0  0
    8.4438    0.5446   -1.1825 H   0  0  0  0  0  0  0  0  0  0  0  0
   10.6554   -2.4565   -0.9005 H   0  0  0  0  0  0  0  0  0  0  0  0
    7.7034    3.0376   -1.7060 H   0  0  0  0  0  0  0  0  0  0  0  0
    1.9978    0.0567   -0.8434 H   0  0  0  0  0  0  0  0  0  0  0  0
   -0.4391   -0.3332   -0.6881 H   0  0  0  0  0  0  0  0  0  0  0  0
   -4.2805   -1.4938   -1.5022 H   0  0  0  0  0  0  0  0  0  0  0  0
  1  2  1  0
  2  3  2  0
  3  4  1  0
  4  5  2  0
  4  6  1  0
  6  7  2  0
  7  8  1  0
  7  9  1  0
  9 10  1  0
 10 11  1  0
 11 12  1  0
 12 13  1  0
 13 14  1  0
 14 15  2  0
 15 16  1  0
 16 17  2  0
 17 18  1  0
 18 19  2  0
 18 20  1  0
 20 21  1  0
 21 22  1  0
 22 23  1  0
 23 24  1  0
 24 25  2  0
 24 26  1  0
 21 27  1  0
 27 28  2  0
 27 29  1  0
 17 30  1  0
 30 31  2  0
 11 32  1  0
  8  2  1  0
 31 14  1  0
 32  6  1  0
  1 33  1  0
  1 34  1  0
  8 35  1  0
  9 36  1  0
 10 37  1  0
 10 38  1  0
 11 39  1  1
 12 40  1  0
 12 41  1  0
 13 42  1  0
 15 43  1  0
 16 44  1  0
 20 45  1  0
 21 46  1  1
 22 47  1  0
 22 48  1  0
 23 49  1  0
 23 50  1  0
 26 51  1  0
 29 52  1  0
 30 53  1  0
 31 54  1  0
 32 55  1  0
M  END
$$$$

     RDKit          3D

 55 57  0  0  0  0  0  0  0  0999 V2000
   10.1151    1.7737   -0.2665 N   0  0  0  0  0  0  0  0  0  0  0  0
    8.8524    1.1456   -0.3227 C   0  0  0  0  0  0  0  0  0  0  0  0
    8.7021   -0.0166   -1.0164 N   0  0  0  0  0  0  0  0  0  0  0  0
    7.5087   -0.6384   -1.0824 C   0  0  0  0  0  0  0  0  0  0  0  0
    7.3513   -1.7254   -1.7253 O   0  0  0  0  0  0  0  0  0  0  0  0
    6.4408   -0.0963   -0.4480 C   0  0  0  0  0  0  0  0  0  0  0  0
    6.5728    1.0864    0.2626 C   0  0  0  0  0  0  0  0  0  0  0  0
    7.8011    1.6966    0.3123 N   0  0  0  0  0  0  0  0  0  0  0  0
    5.4622    1.6708    0.9324 N   0  0  0  0  0  0  0  0  0  0  0  0
    4.2536    0.8920    1.0756 C   0  0  0  0  0  0  0  0  0  0  0  0
    4.0185    0.1367   -0.2039 C   0  0  2  0  0  0  0  0  0  0  0  0
    2.7118   -0.5941   -0.2183 C   0  0  0  0  0  0  0  0  0  0  0  0
    1.6389    0.3619   -0.0694 N   0  0  0  0  0  0  0  0  0  0  0  0
    0.2943   -0.1400   -0.0375 C   0  0  0  0  0  0  0  0  0  0  0  0
   -0.7975    0.7002   -0.0186 C   0  0  0  0  0  0  0  0  0  0  0  0
   -2.0974    0.2147    0.0215 C   0  0  0  0  0  0  0  0  0  0  0  0
   -2.3576   -1.1373    0.0447 C   0  0  0  0  0  0  0  0  0  0  0  0
   -3.6974   -1.6948    0.0851 C   0  0  0  0  0  0  0  0  0  0  0  0
   -3.8309   -2.8954    0.4259 O   0  0  0  0  0  0  0  0  0  0  0  0
   -4.8521   -0.9519   -0.2403 N   0  0  0  0  0  0  0  0  0  0  0  0
   -6.1857   -1.4623   -0.2071 C   0  0  1  0  0  0  0  0  0  0  0  0
   -6.9890   -0.7366    0.8313 C   0  0  0  0  0  0  0  0  0  0  0  0
   -7.0529    0.7420    0.4984 C   0  0  0  0  0  0  0  0  0  0  0  0
   -7.8542    1.4832    1.4963 C   0  0  0  0  0  0  0  0  0  0  0  0
   -7.5654    1.3737    2.7092 O   0  0  0  0  0  0  0  0  0  0  0  0
   -8.9088    2.2777    1.0302 O   0  0  0  0  0  0  0  0  0  0  0  0
   -6.8189   -1.3835   -1.5534 C   0  0  0  0  0  0  0  0  0  0  0  0
   -6.1595   -0.9359   -2.5004 O   0  0  0  0  0  0  0  0  0  0  0  0
   -8.1239   -1.8164   -1.6779 O   0  0  0  0  0  0  0  0  0  0  0  0
   -1.2496   -1.9754    0.0259 C   0  0  0  0  0  0  0  0  0  0  0  0
    0.0450   -1.4953   -0.0150 C   0  0  0  0  0  0  0  0  0  0  0  0
    5.1428   -0.7264   -0.4838 N   0  0  0  0  0  0  0  0  0  0  0  0
   10.9749    1.2123   -0.1682 H   0  0  0  0  0  0  0  0  0  0  0  0
   10.1854    2.8068   -0.3226 H   0  0  0  0  0  0  0  0  0  0  0  0
    7.8942    2.6069    0.8580 H   0  0  0  0  0  0  0  0  0  0  0  0
    5.5535    2.6446    1.2996 H   0  0  0  0  0  0  0  0  0  0  0  0
    4.4254    0.1033    1.8663 H   0  0  0  0  0  0  0  0  0  0  0  0
    3.3884    1.5203    1.3551 H   0  0  0  0  0  0  0  0  0  0  0  0
    3.9901    0.9243   -1.0190 H   0  0  0  0  0  0  0  0  0  0  0  0
    2.5824   -1.2174   -1.1108 H   0  0  0  0  0  0  0  0  0  0  0  0
    2.6842   -1.2142    0.7246 H   0  0  0  0  0  0  0  0  0  0  0  0
    1.8666    1.3650    0.0075 H   0  0  0  0  0  0  0  0  0  0  0  0
   -0.6218    1.7549   -0.0378 H   0  0  0  0  0  0  0  0  0  0  0  0
   -2.9510    0.8906    0.0384 H   0  0  0  0  0  0  0  0  0  0  0  0
   -4.6977    0.0572   -0.5333 H   0  0  0  0  0  0  0  0  0  0  0  0
   -6.1158   -2.5458    0.1115 H   0  0  0  0  0  0  0  0  0  0  0  0
   -6.4673   -0.7993    1.8118 H   0  0  0  0  0  0  0  0  0  0  0  0
   -8.0172   -1.1437    0.9185 H   0  0  0  0  0  0  0  0  0  0  0  0
   -6.0194    1.1713    0.4720 H   0  0  0  0  0  0  0  0  0  0  0  0
   -7.5019    0.8771   -0.5051 H   0  0  0  0  0  0  0  0  0  0  0  0
   -9.5499    2.7175    1.6973 H   0  0  0  0  0  0  0  0  0  0  0  0
   -8.5122   -1.9043   -2.6228 H   0  0  0  0  0  0  0  0  0  0  0  0
   -1.4491   -3.0579    0.0436 H   0  0  0  0  0  0  0  0  0  0  0  0
    0.8982   -2.1645   -0.0321 H   0  0  0  0  0  0  0  0  0  0  0  0
    5.0895   -1.7382   -0.7019 H   0  0  0  0  0  0  0  0  0  0  0  0
  1  2  1  0
  2  3  2  0
  3  4  1  0
  4  5  2  0
  4  6  1  0
  6  7  2  0
  7  8  1  0
  7  9  1  0
  9 10  1  0
 10 11  1  0
 11 12  1  0
 12 13  1  0
 13 14  1  0
 14 15  2  0
 15 16  1  0
 16 17  2  0
 17 18  1  0
 18 19  2  0
 18 20  1  0
 20 21  1  0
 21 22  1  0
 22 23  1  0
 23 24  1  0
 24 25  2  0
 24 26  1  0
 21 27  1  0
 27 28  2  0
 27 29  1  0
 17 30  1  0
 30 31  2  0
 11 32  1  0
  8  2  1  0
 31 14  1  0
 32  6  1  0
  1 33  1  0
  1 34  1  0
  8 35  1  0
  9 36  1  0
 10 37  1  0
 10 38  1  0
 11 39  1  6
 12 40  1  0
 12 41  1  0
 13 42  1  0
 15 43  1  0
 16 44  1  0
 20 45  1  0
 21 46  1  1
 22 47  1  0
 22 48  1  0
 23 49  1  0
 23 50  1  0
 26 51  1  0
 29 52  1  0
 30 53  1  0
 31 54  1  0
 32 55  1  0
M  END
$$$$

     RDKit          3D

 55 57  0  0  0  0  0  0  0  0999 V2000
   10.0859    0.3141   -0.5212 N   0  0  0  0  0  0  0  0  0  0  0  0
    8.6991    0.5154   -0.2331 C   0  0  0  0  0  0  0  0  0  0  0  0
    8.0617    1.6361   -0.6270 N   0  0  0  0  0  0  0  0  0  0  0  0
    6.7590    1.7768   -0.3321 C   0  0  0  0  0  0  0  0  0  0  0  0
    6.0996    2.8092   -0.6745 O   0  0  0  0  0  0  0  0  0  0  0  0
    6.0358    0.8170    0.3627 C   0  0  0  0  0  0  0  0  0  0  0  0
    6.7242   -0.3142    0.7476 C   0  0  0  0  0  0  0  0  0  0  0  0
    8.0131   -0.4354    0.4466 N   0  0  0  0  0  0  0  0  0  0  0  0
    5.9728   -1.2979    1.4618 N   0  0  0  0  0  0  0  0  0  0  0  0
    4.5204   -1.3007    1.3513 C   0  0  0  0  0  0  0  0  0  0  0  0
    4.0440    0.1023    1.6314 C   0  0  2  0  0  0  0  0  0  0  0  0
    2.5354    0.2081    1.5544 C   0  0  0  0  0  0  0  0  0  0  0  0
    2.0461   -0.1575    0.2420 N   0  0  0  0  0  0  0  0  0  0  0  0
    0.6640   -0.1367   -0.0751 C   0  0  0  0  0  0  0  0  0  0  0  0
    0.2525   -0.4852   -1.3443 C   0  0  0  0  0  0  0  0  0  0  0  0
   -1.0964   -0.4566   -1.6248 C   0  0  0  0  0  0  0  0  0  0  0  0
   -2.0656   -0.0971   -0.7030 C   0  0  0  0  0  0  0  0  0  0  0  0
   -3.4871   -0.0914   -1.0802 C   0  0  0  0  0  0  0  0  0  0  0  0
   -3.7909   -0.4081   -2.2644 O   0  0  0  0  0  0  0  0  0  0  0  0
   -4.5295    0.2422   -0.2132 N   0  0  0  0  0  0  0  0  0  0  0  0
   -5.9409    0.2432   -0.6038 C   0  0  1  0  0  0  0  0  0  0  0  0
   -6.7426   -0.6584    0.2668 C   0  0  0  0  0  0  0  0  0  0  0  0
   -8.1905   -0.7243   -0.0663 C   0  0  0  0  0  0  0  0  0  0  0  0
   -8.4965   -1.1923   -1.4338 C   0  0  0  0  0  0  0  0  0  0  0  0
   -7.6518   -1.5399   -2.2929 O   0  0  0  0  0  0  0  0  0  0  0  0
   -9.8328   -1.2536   -1.8026 O   0  0  0  0  0  0  0  0  0  0  0  0
   -6.4245    1.6351   -0.4801 C   0  0  0  0  0  0  0  0  0  0  0  0
   -5.6218    2.5327   -0.0474 O   0  0  0  0  0  0  0  0  0  0  0  0
   -7.6848    2.0699   -0.7948 O   0  0  0  0  0  0  0  0  0  0  0  0
   -1.6454    0.2473    0.5551 C   0  0  0  0  0  0  0  0  0  0  0  0
   -0.2821    0.2246    0.8593 C   0  0  0  0  0  0  0  0  0  0  0  0
    4.6591    0.9862    0.6622 N   0  0  0  0  0  0  0  0  0  0  0  0
   10.3522   -0.4547   -1.1575 H   0  0  0  0  0  0  0  0  0  0  0  0
   10.8097    0.9259   -0.1014 H   0  0  0  0  0  0  0  0  0  0  0  0
    8.4939   -1.3163    0.7616 H   0  0  0  0  0  0  0  0  0  0  0  0
    6.5071   -1.9817    2.0396 H   0  0  0  0  0  0  0  0  0  0  0  0
    4.1316   -1.9554    2.1796 H   0  0  0  0  0  0  0  0  0  0  0  0
    4.1854   -1.6299    0.3580 H   0  0  0  0  0  0  0  0  0  0  0  0
    4.3749    0.4055    2.6270 H   0  0  0  0  0  0  0  0  0  0  0  0
    2.2371    1.2322    1.8542 H   0  0  0  0  0  0  0  0  0  0  0  0
    2.1087   -0.4858    2.3048 H   0  0  0  0  0  0  0  0  0  0  0  0
    2.7490   -0.4405   -0.4720 H   0  0  0  0  0  0  0  0  0  0  0  0
    0.9966   -0.7726   -2.0899 H   0  0  0  0  0  0  0  0  0  0  0  0
   -1.4134   -0.7324   -2.6270 H   0  0  0  0  0  0  0  0  0  0  0  0
   -4.3217    0.5083    0.7692 H   0  0  0  0  0  0  0  0  0  0  0  0
   -6.0007   -0.0509   -1.6594 H   0  0  0  0  0  0  0  0  0  0  0  0
   -6.6871   -0.3453    1.3519 H   0  0  0  0  0  0  0  0  0  0  0  0
   -6.3006   -1.6829    0.1934 H   0  0  0  0  0  0  0  0  0  0  0  0
   -8.6599   -1.4872    0.6259 H   0  0  0  0  0  0  0  0  0  0  0  0
   -8.6805    0.2497    0.0916 H   0  0  0  0  0  0  0  0  0  0  0  0
  -10.1374   -1.3910   -2.7582 H   0  0  0  0  0  0  0  0  0  0  0  0
   -8.1696    2.8190   -0.2878 H   0  0  0  0  0  0  0  0  0  0  0  0
   -2.3649    0.5361    1.3119 H   0  0  0  0  0  0  0  0  0  0  0  0
    0.0005    0.5088    1.8800 H   0  0  0  0  0  0  0  0  0  0  0  0
    4.0996    1.7299    0.1962 H   0  0  0  0  0  0  0  0  0  0  0  0
  1  2  1  0
  2  3  2  0
  3  4  1  0
  4  5  2  0
  4  6  1  0
  6  7  2  0
  7  8  1  0
  7  9  1  0
  9 10  1  0
 10 11  1  0
 11 12  1  0
 12 13  1  0
 13 14  1  0
 14 15  2  0
 15 16  1  0
 16 17  2  0
 17 18  1  0
 18 19  2  0
 18 20  1  0
 20 21  1  0
 21 22  1  0
 22 23  1  0
 23 24  1  0
 24 25  2  0
 24 26  1  0
 21 27  1  0
 27 28  2  0
 27 29  1  0
 17 30  1  0
 30 31  2  0
 11 32  1  0
  8  2  1  0
 31 14  1  0
 32  6  1  0
  1 33  1  0
  1 34  1  0
  8 35  1  0
  9 36  1  0
 10 37  1  0
 10 38  1  0
 11 39  1  1
 12 40  1  0
 12 41  1  0
 13 42  1  0
 15 43  1  0
 16 44  1  0
 20 45  1  0
 21 46  1  6
 22 47  1  0
 22 48  1  0
 23 49  1  0
 23 50  1  0
 26 51  1  0
 29 52  1  0
 30 53  1  0
 31 54  1  0
 32 55  1  0
M  END
$$$$

     RDKit          3D

 55 57  0  0  0  0  0  0  0  0999 V2000
   -8.8018   -2.0131   -1.5850 N   0  0  0  0  0  0  0  0  0  0  0  0
   -7.6724   -1.1514   -1.3364 C   0  0  0  0  0  0  0  0  0  0  0  0
   -7.8678    0.0205   -0.6913 N   0  0  0  0  0  0  0  0  0  0  0  0
   -6.8096    0.8263   -0.4592 C   0  0  0  0  0  0  0  0  0  0  0  0
   -6.9170    1.9301    0.1349 O   0  0  0  0  0  0  0  0  0  0  0  0
   -5.5506    0.4495   -0.8786 C   0  0  0  0  0  0  0  0  0  0  0  0
   -5.3799   -0.7704   -1.5442 C   0  0  0  0  0  0  0  0  0  0  0  0
   -6.4492   -1.5421   -1.7567 N   0  0  0  0  0  0  0  0  0  0  0  0
   -4.0672   -1.1265   -1.9626 N   0  0  0  0  0  0  0  0  0  0  0  0
   -3.0800   -0.0790   -2.0218 C   0  0  0  0  0  0  0  0  0  0  0  0
   -3.1182    0.6518   -0.6730 C   0  0  2  0  0  0  0  0  0  0  0  0
   -3.1046   -0.3387    0.4658 C   0  0  0  0  0  0  0  0  0  0  0  0
   -1.9352   -1.1831    0.4850 N   0  0  0  0  0  0  0  0  0  0  0  0
   -0.6508   -0.6473    0.7521 C   0  0  0  0  0  0  0  0  0  0  0  0
   -0.4129    0.6226    1.2256 C   0  0  0  0  0  0  0  0  0  0  0  0
    0.8679    1.0917    1.4526 C   0  0  0  0  0  0  0  0  0  0  0  0
    1.9842    0.3003    1.2134 C   0  0  0  0  0  0  0  0  0  0  0  0
    3.3197    0.8534    1.4737 C   0  0  0  0  0  0  0  0  0  0  0  0
    3.4201    2.0216    1.9450 O   0  0  0  0  0  0  0  0  0  0  0  0
    4.5131    0.1401    1.2220 N   0  0  0  0  0  0  0  0  0  0  0  0
    5.8433    0.7142    1.4919 C   0  0  1  0  0  0  0  0  0  0  0  0
    6.0562    1.9576    0.6732 C   0  0  0  0  0  0  0  0  0  0  0  0
    5.9823    1.7645   -0.8006 C   0  0  0  0  0  0  0  0  0  0  0  0
    6.9865    0.8457   -1.3411 C   0  0  0  0  0  0  0  0  0  0  0  0
    7.8503    0.3081   -0.6157 O   0  0  0  0  0  0  0  0  0  0  0  0
    6.9351    0.5933   -2.7230 O   0  0  0  0  0  0  0  0  0  0  0  0
    5.9485    1.0585    2.9277 C   0  0  0  0  0  0  0  0  0  0  0  0
    4.9791    0.8303    3.6798 O   0  0  0  0  0  0  0  0  0  0  0  0
    7.0879    1.6254    3.4613 O   0  0  0  0  0  0  0  0  0  0  0  0
    1.7661   -0.9682    0.7419 C   0  0  0  0  0  0  0  0  0  0  0  0
    0.4862   -1.4292    0.5175 C   0  0  0  0  0  0  0  0  0  0  0  0
   -4.4349    1.2984   -0.6341 N   0  0  0  0  0  0  0  0  0  0  0  0
   -8.7684   -3.0249   -1.3435 H   0  0  0  0  0  0  0  0  0  0  0  0
   -9.6564   -1.6309   -2.0065 H   0  0  0  0  0  0  0  0  0  0  0  0
   -6.2999   -2.4569   -2.2597 H   0  0  0  0  0  0  0  0  0  0  0  0
   -3.8832   -2.1134   -2.2032 H   0  0  0  0  0  0  0  0  0  0  0  0
   -2.0660   -0.4490   -2.2438 H   0  0  0  0  0  0  0  0  0  0  0  0
   -3.3502    0.6591   -2.7895 H   0  0  0  0  0  0  0  0  0  0  0  0
   -2.3583    1.4223   -0.6381 H   0  0  0  0  0  0  0  0  0  0  0  0
   -3.1108    0.2385    1.4370 H   0  0  0  0  0  0  0  0  0  0  0  0
   -4.0249   -0.9472    0.5057 H   0  0  0  0  0  0  0  0  0  0  0  0
   -2.0423   -2.2131    0.2975 H   0  0  0  0  0  0  0  0  0  0  0  0
   -1.2794    1.2697    1.4346 H   0  0  0  0  0  0  0  0  0  0  0  0
    1.0281    2.0865    1.8221 H   0  0  0  0  0  0  0  0  0  0  0  0
    4.4268   -0.8277    0.8302 H   0  0  0  0  0  0  0  0  0  0  0  0
    6.5834   -0.0585    1.2461 H   0  0  0  0  0  0  0  0  0  0  0  0
    5.4050    2.7963    1.0047 H   0  0  0  0  0  0  0  0  0  0  0  0
    7.0998    2.3166    0.9260 H   0  0  0  0  0  0  0  0  0  0  0  0
    4.9752    1.4542   -1.1550 H   0  0  0  0  0  0  0  0  0  0  0  0
    6.1479    2.7696   -1.2791 H   0  0  0  0  0  0  0  0  0  0  0  0
    7.7664    0.1168   -3.1046 H   0  0  0  0  0  0  0  0  0  0  0  0
    7.2647    1.7716    4.4367 H   0  0  0  0  0  0  0  0  0  0  0  0
    2.6050   -1.6154    0.5436 H   0  0  0  0  0  0  0  0  0  0  0  0
    0.3040   -2.4443    0.1399 H   0  0  0  0  0  0  0  0  0  0  0  0
   -4.5411    2.3061   -0.4411 H   0  0  0  0  0  0  0  0  0  0  0  0
  1  2  1  0
  2  3  2  0
  3  4  1  0
  4  5  2  0
  4  6  1  0
  6  7  2  0
  7  8  1  0
  7  9  1  0
  9 10  1  0
 10 11  1  0
 11 12  1  0
 12 13  1  0
 13 14  1  0
 14 15  2  0
 15 16  1  0
 16 17  2  0
 17 18  1  0
 18 19  2  0
 18 20  1  0
 20 21  1  0
 21 22  1  0
 22 23  1  0
 23 24  1  0
 24 25  2  0
 24 26  1  0
 21 27  1  0
 27 28  2  0
 27 29  1  0
 17 30  1  0
 30 31  2  0
 11 32  1  0
  8  2  1  0
 31 14  1  0
 32  6  1  0
  1 33  1  0
  1 34  1  0
  8 35  1  0
  9 36  1  0
 10 37  1  0
 10 38  1  0
 11 39  1  1
 12 40  1  0
 12 41  1  0
 13 42  1  0
 15 43  1  0
 16 44  1  0
 20 45  1  0
 21 46  1  6
 22 47  1  0
 22 48  1  0
 23 49  1  0
 23 50  1  0
 26 51  1  0
 29 52  1  0
 30 53  1  0
 31 54  1  0
 32 55  1  0
M  END
$$$$

     RDKit          3D

 55 57  0  0  0  0  0  0  0  0999 V2000
    9.2511    0.4303   -0.7196 N   0  0  0  0  0  0  0  0  0  0  0  0
    7.8471    0.2786   -0.6728 C   0  0  0  0  0  0  0  0  0  0  0  0
    7.2719   -0.9425   -0.7358 N   0  0  0  0  0  0  0  0  0  0  0  0
    5.9481   -1.1466   -0.6964 C   0  0  0  0  0  0  0  0  0  0  0  0
    5.4266   -2.3011   -0.7570 O   0  0  0  0  0  0  0  0  0  0  0  0
    5.1188   -0.0270   -0.5836 C   0  0  0  0  0  0  0  0  0  0  0  0
    5.6842    1.2232   -0.5184 C   0  0  0  0  0  0  0  0  0  0  0  0
    7.0182    1.3423   -0.5639 N   0  0  0  0  0  0  0  0  0  0  0  0
    4.8263    2.3516   -0.4052 N   0  0  0  0  0  0  0  0  0  0  0  0
    3.4924    2.2117   -0.9513 C   0  0  0  0  0  0  0  0  0  0  0  0
    2.8192    0.9702   -0.3564 C   0  0  2  0  0  0  0  0  0  0  0  0
    2.5721    1.1927    1.1143 C   0  0  0  0  0  0  0  0  0  0  0  0
    1.9377    0.0590    1.7272 N   0  0  0  0  0  0  0  0  0  0  0  0
    0.6078   -0.3501    1.4325 C   0  0  0  0  0  0  0  0  0  0  0  0
    0.1612   -1.5822    1.8966 C   0  0  0  0  0  0  0  0  0  0  0  0
   -1.1267   -1.9627    1.6152 C   0  0  0  0  0  0  0  0  0  0  0  0
   -2.0017   -1.1852    0.8944 C   0  0  0  0  0  0  0  0  0  0  0  0
   -3.3414   -1.6610    0.6405 C   0  0  0  0  0  0  0  0  0  0  0  0
   -3.7898   -2.6099    1.3370 O   0  0  0  0  0  0  0  0  0  0  0  0
   -4.1466   -1.0812   -0.3707 N   0  0  0  0  0  0  0  0  0  0  0  0
   -5.5034   -1.5410   -0.6512 C   0  0  1  0  0  0  0  0  0  0  0  0
   -6.4076   -0.3653   -0.5034 C   0  0  0  0  0  0  0  0  0  0  0  0
   -6.3001    0.1659    0.9088 C   0  0  0  0  0  0  0  0  0  0  0  0
   -7.1893    1.3521    1.0932 C   0  0  0  0  0  0  0  0  0  0  0  0
   -7.8715    1.7208    0.1057 O   0  0  0  0  0  0  0  0  0  0  0  0
   -7.2988    2.0537    2.2718 O   0  0  0  0  0  0  0  0  0  0  0  0
   -5.5762   -2.1382   -2.0180 C   0  0  0  0  0  0  0  0  0  0  0  0
   -4.5184   -2.1496   -2.6907 O   0  0  0  0  0  0  0  0  0  0  0  0
   -6.7259   -2.6586   -2.5465 O   0  0  0  0  0  0  0  0  0  0  0  0
   -1.5444    0.0211    0.4482 C   0  0  0  0  0  0  0  0  0  0  0  0
   -0.2390    0.4474    0.7134 C   0  0  0  0  0  0  0  0  0  0  0  0
    3.7205   -0.1667   -0.5357 N   0  0  0  0  0  0  0  0  0  0  0  0
    9.6381    1.3873   -0.7741 H   0  0  0  0  0  0  0  0  0  0  0  0
    9.8453   -0.4329   -0.6967 H   0  0  0  0  0  0  0  0  0  0  0  0
    7.4207    2.3250   -0.5116 H   0  0  0  0  0  0  0  0  0  0  0  0
    5.1747    3.2122    0.0505 H   0  0  0  0  0  0  0  0  0  0  0  0
    3.5272    2.1292   -2.0441 H   0  0  0  0  0  0  0  0  0  0  0  0
    2.9318    3.1226   -0.6553 H   0  0  0  0  0  0  0  0  0  0  0  0
    1.9018    0.7979   -0.9330 H   0  0  0  0  0  0  0  0  0  0  0  0
    1.9435    2.0990    1.2608 H   0  0  0  0  0  0  0  0  0  0  0  0
    3.5442    1.3901    1.6482 H   0  0  0  0  0  0  0  0  0  0  0  0
    2.4871   -0.5077    2.4378 H   0  0  0  0  0  0  0  0  0  0  0  0
    0.8453   -2.1814    2.4561 H   0  0  0  0  0  0  0  0  0  0  0  0
   -1.4384   -2.9292    1.9934 H   0  0  0  0  0  0  0  0  0  0  0  0
   -3.7385   -0.3001   -0.9257 H   0  0  0  0  0  0  0  0  0  0  0  0
   -5.7595   -2.3240    0.0627 H   0  0  0  0  0  0  0  0  0  0  0  0
   -6.1484    0.4626   -1.1955 H   0  0  0  0  0  0  0  0  0  0  0  0
   -7.4825   -0.6073   -0.6620 H   0  0  0  0  0  0  0  0  0  0  0  0
   -6.6602   -0.6007    1.6563 H   0  0  0  0  0  0  0  0  0  0  0  0
   -5.2654    0.4709    1.1712 H   0  0  0  0  0  0  0  0  0  0  0  0
   -7.3891    3.0716    2.2697 H   0  0  0  0  0  0  0  0  0  0  0  0
   -6.6645   -3.5103   -3.1041 H   0  0  0  0  0  0  0  0  0  0  0  0
   -2.1817    0.6873   -0.1252 H   0  0  0  0  0  0  0  0  0  0  0  0
    0.0524    1.4041    0.3478 H   0  0  0  0  0  0  0  0  0  0  0  0
    3.2939   -1.1179   -0.6308 H   0  0  0  0  0  0  0  0  0  0  0  0
  1  2  1  0
  2  3  2  0
  3  4  1  0
  4  5  2  0
  4  6  1  0
  6  7  2  0
  7  8  1  0
  7  9  1  0
  9 10  1  0
 10 11  1  0
 11 12  1  0
 12 13  1  0
 13 14  1  0
 14 15  2  0
 15 16  1  0
 16 17  2  0
 17 18  1  0
 18 19  2  0
 18 20  1  0
 20 21  1  0
 21 22  1  0
 22 23  1  0
 23 24  1  0
 24 25  2  0
 24 26  1  0
 21 27  1  0
 27 28  2  0
 27 29  1  0
 17 30  1  0
 30 31  2  0
 11 32  1  0
  8  2  1  0
 31 14  1  0
 32  6  1  0
  1 33  1  0
  1 34  1  0
  8 35  1  0
  9 36  1  0
 10 37  1  0
 10 38  1  0
 11 39  1  6
 12 40  1  0
 12 41  1  0
 13 42  1  0
 15 43  1  0
 16 44  1  0
 20 45  1  0
 21 46  1  1
 22 47  1  0
 22 48  1  0
 23 49  1  0
 23 50  1  0
 26 51  1  0
 29 52  1  0
 30 53  1  0
 31 54  1  0
 32 55  1  0
M  END
$$$$

     RDKit          3D

 55 57  0  0  0  0  0  0  0  0999 V2000
   -9.8823    0.2778   -0.0725 N   0  0  0  0  0  0  0  0  0  0  0  0
   -8.4935    0.4754   -0.3800 C   0  0  0  0  0  0  0  0  0  0  0  0
   -8.0927    1.3866   -1.2796 N   0  0  0  0  0  0  0  0  0  0  0  0
   -6.7961    1.5865   -1.5812 C   0  0  0  0  0  0  0  0  0  0  0  0
   -6.4319    2.4491   -2.4316 O   0  0  0  0  0  0  0  0  0  0  0  0
   -5.8646    0.8046   -0.9189 C   0  0  0  0  0  0  0  0  0  0  0  0
   -6.2714   -0.1215   -0.0046 C   0  0  0  0  0  0  0  0  0  0  0  0
   -7.5986   -0.2894    0.2690 N   0  0  0  0  0  0  0  0  0  0  0  0
   -5.2873   -0.9020    0.6523 N   0  0  0  0  0  0  0  0  0  0  0  0
   -3.8911   -0.8652    0.3587 C   0  0  0  0  0  0  0  0  0  0  0  0
   -3.4417    0.3646   -0.3858 C   0  0  2  0  0  0  0  0  0  0  0  0
   -3.0554    1.3836    0.6647 C   0  0  0  0  0  0  0  0  0  0  0  0
   -1.9898    0.8408    1.4628 N   0  0  0  0  0  0  0  0  0  0  0  0
   -0.7152    0.6408    0.9105 C   0  0  0  0  0  0  0  0  0  0  0  0
    0.2323   -0.1325    1.5854 C   0  0  0  0  0  0  0  0  0  0  0  0
    1.4957   -0.3198    1.0587 C   0  0  0  0  0  0  0  0  0  0  0  0
    1.8917    0.2296   -0.1346 C   0  0  0  0  0  0  0  0  0  0  0  0
    3.2121    0.0464   -0.7073 C   0  0  0  0  0  0  0  0  0  0  0  0
    3.4966    0.6063   -1.8029 O   0  0  0  0  0  0  0  0  0  0  0  0
    4.2075   -0.7374   -0.0913 N   0  0  0  0  0  0  0  0  0  0  0  0
    5.5547   -0.9045   -0.7065 C   0  0  1  0  0  0  0  0  0  0  0  0
    6.5077   -0.3045    0.2860 C   0  0  0  0  0  0  0  0  0  0  0  0
    7.9319   -0.3615   -0.1632 C   0  0  0  0  0  0  0  0  0  0  0  0
    8.7640    0.2897    0.9043 C   0  0  0  0  0  0  0  0  0  0  0  0
    8.2304    0.7541    1.9369 O   0  0  0  0  0  0  0  0  0  0  0  0
   10.1374    0.3346    0.6606 O   0  0  0  0  0  0  0  0  0  0  0  0
    5.8346   -2.3409   -0.8663 C   0  0  0  0  0  0  0  0  0  0  0  0
    5.0053   -3.1759   -0.4369 O   0  0  0  0  0  0  0  0  0  0  0  0
    6.9837   -2.7696   -1.4785 O   0  0  0  0  0  0  0  0  0  0  0  0
    0.9466    0.9909   -0.7901 C   0  0  0  0  0  0  0  0  0  0  0  0
   -0.3382    1.1956   -0.2778 C   0  0  0  0  0  0  0  0  0  0  0  0
   -4.4892    0.9538   -1.1782 N   0  0  0  0  0  0  0  0  0  0  0  0
  -10.4101   -0.4703   -0.5542 H   0  0  0  0  0  0  0  0  0  0  0  0
  -10.2821    0.9236    0.6411 H   0  0  0  0  0  0  0  0  0  0  0  0
   -7.9039   -0.9907    0.9610 H   0  0  0  0  0  0  0  0  0  0  0  0
   -5.6171   -1.5461    1.4022 H   0  0  0  0  0  0  0  0  0  0  0  0
   -3.6214   -1.7614   -0.2687 H   0  0  0  0  0  0  0  0  0  0  0  0
   -3.3237   -1.0089    1.3083 H   0  0  0  0  0  0  0  0  0  0  0  0
   -2.5982    0.1285   -1.0414 H   0  0  0  0  0  0  0  0  0  0  0  0
   -3.9415    1.6317    1.2974 H   0  0  0  0  0  0  0  0  0  0  0  0
   -2.7058    2.3115    0.1254 H   0  0  0  0  0  0  0  0  0  0  0  0
   -2.1513    0.5899    2.4601 H   0  0  0  0  0  0  0  0  0  0  0  0
   -0.0924   -0.5615    2.5274 H   0  0  0  0  0  0  0  0  0  0  0  0
    2.1847   -0.9243    1.6212 H   0  0  0  0  0  0  0  0  0  0  0  0
    3.9992   -1.2084    0.8089 H   0  0  0  0  0  0  0  0  0  0  0  0
    5.5670   -0.3351   -1.6368 H   0  0  0  0  0  0  0  0  0  0  0  0
    6.4460   -0.9357    1.2116 H   0  0  0  0  0  0  0  0  0  0  0  0
    6.2101    0.7318    0.5720 H   0  0  0  0  0  0  0  0  0  0  0  0
    8.3205   -1.3465   -0.4136 H   0  0  0  0  0  0  0  0  0  0  0  0
    8.0916    0.2780   -1.0787 H   0  0  0  0  0  0  0  0  0  0  0  0
   10.6762    1.0507    1.1487 H   0  0  0  0  0  0  0  0  0  0  0  0
    7.3255   -3.7205   -1.4572 H   0  0  0  0  0  0  0  0  0  0  0  0
    1.2422    1.4337   -1.7358 H   0  0  0  0  0  0  0  0  0  0  0  0
   -1.0050    1.8136   -0.8519 H   0  0  0  0  0  0  0  0  0  0  0  0
   -4.2035    1.5300   -1.9986 H   0  0  0  0  0  0  0  0  0  0  0  0
  1  2  1  0
  2  3  2  0
  3  4  1  0
  4  5  2  0
  4  6  1  0
  6  7  2  0
  7  8  1  0
  7  9  1  0
  9 10  1  0
 10 11  1  0
 11 12  1  0
 12 13  1  0
 13 14  1  0
 14 15  2  0
 15 16  1  0
 16 17  2  0
 17 18  1  0
 18 19  2  0
 18 20  1  0
 20 21  1  0
 21 22  1  0
 22 23  1  0
 23 24  1  0
 24 25  2  0
 24 26  1  0
 21 27  1  0
 27 28  2  0
 27 29  1  0
 17 30  1  0
 30 31  2  0
 11 32  1  0
  8  2  1  0
 31 14  1  0
 32  6  1  0
  1 33  1  0
  1 34  1  0
  8 35  1  0
  9 36  1  0
 10 37  1  0
 10 38  1  0
 11 39  1  6
 12 40  1  0
 12 41  1  0
 13 42  1  0
 15 43  1  0
 16 44  1  0
 20 45  1  0
 21 46  1  6
 22 47  1  0
 22 48  1  0
 23 49  1  0
 23 50  1  0
 26 51  1  0
 29 52  1  0
 30 53  1  0
 31 54  1  0
 32 55  1  0
M  END
$$$$

     RDKit          3D

 55 57  0  0  0  0  0  0  0  0999 V2000
   -9.3626    0.4933    1.9018 N   0  0  0  0  0  0  0  0  0  0  0  0
   -8.0229    0.3879    1.4017 C   0  0  0  0  0  0  0  0  0  0  0  0
   -6.9977    0.6540    2.2499 N   0  0  0  0  0  0  0  0  0  0  0  0
   -5.7638    0.4895    1.7303 C   0  0  0  0  0  0  0  0  0  0  0  0
   -4.7735    0.7212    2.4559 O   0  0  0  0  0  0  0  0  0  0  0  0
   -5.5529    0.0809    0.4406 C   0  0  0  0  0  0  0  0  0  0  0  0
   -6.6509   -0.1716   -0.3585 C   0  0  0  0  0  0  0  0  0  0  0  0
   -7.8874   -0.0118    0.1408 N   0  0  0  0  0  0  0  0  0  0  0  0
   -6.4802   -0.5678   -1.7238 N   0  0  0  0  0  0  0  0  0  0  0  0
   -5.1670   -0.8734   -2.2302 C   0  0  0  0  0  0  0  0  0  0  0  0
   -4.1618   -0.0708   -1.5459 C   0  0  2  0  0  0  0  0  0  0  0  0
   -2.7257   -0.4338   -1.9623 C   0  0  0  0  0  0  0  0  0  0  0  0
   -1.9342    0.4276   -1.1428 N   0  0  0  0  0  0  0  0  0  0  0  0
   -0.5803    0.1956   -0.7996 C   0  0  0  0  0  0  0  0  0  0  0  0
    0.4459   -0.0413   -1.6686 C   0  0  0  0  0  0  0  0  0  0  0  0
    1.7336   -0.1855   -1.1888 C   0  0  0  0  0  0  0  0  0  0  0  0
    2.0343   -0.1012    0.1343 C   0  0  0  0  0  0  0  0  0  0  0  0
    3.4077   -0.0213    0.5820 C   0  0  0  0  0  0  0  0  0  0  0  0
    3.5756    1.0764    1.3074 O   0  0  0  0  0  0  0  0  0  0  0  0
    4.5141   -0.8466    0.3522 N   0  0  0  0  0  0  0  0  0  0  0  0
    5.8014   -0.3009    0.8620 C   0  0  1  0  0  0  0  0  0  0  0  0
    6.8844   -1.1664    1.1267 C   0  0  0  0  0  0  0  0  0  0  0  0
    8.0831   -0.4972    1.7296 C   0  0  0  0  0  0  0  0  0  0  0  0
    8.8537    0.4966    1.0094 C   0  0  0  0  0  0  0  0  0  0  0  0
    9.7413    1.1209    1.7158 O   0  0  0  0  0  0  0  0  0  0  0  0
    8.8036    0.9080   -0.3066 O   0  0  0  0  0  0  0  0  0  0  0  0
    5.9574    0.8841   -0.0313 C   0  0  0  0  0  0  0  0  0  0  0  0
    5.6174    2.0065    0.3111 O   0  0  0  0  0  0  0  0  0  0  0  0
    6.4787    0.7482   -1.3424 O   0  0  0  0  0  0  0  0  0  0  0  0
    1.0193    0.1278    1.0308 C   0  0  0  0  0  0  0  0  0  0  0  0
   -0.2920    0.2729    0.5870 C   0  0  0  0  0  0  0  0  0  0  0  0
   -4.2681   -0.1415   -0.1058 N   0  0  0  0  0  0  0  0  0  0  0  0
   -9.9716   -0.3705    1.9643 H   0  0  0  0  0  0  0  0  0  0  0  0
   -9.7642    1.3968    2.2092 H   0  0  0  0  0  0  0  0  0  0  0  0
   -8.7269   -0.2182   -0.4738 H   0  0  0  0  0  0  0  0  0  0  0  0
   -7.3111   -0.6515   -2.3688 H   0  0  0  0  0  0  0  0  0  0  0  0
   -4.9208   -1.9510   -2.1092 H   0  0  0  0  0  0  0  0  0  0  0  0
   -5.1299   -0.6866   -3.3534 H   0  0  0  0  0  0  0  0  0  0  0  0
   -4.2500    1.0340   -1.7813 H   0  0  0  0  0  0  0  0  0  0  0  0
   -2.6438   -0.1799   -3.0497 H   0  0  0  0  0  0  0  0  0  0  0  0
   -2.5470   -1.4964   -1.8303 H   0  0  0  0  0  0  0  0  0  0  0  0
   -2.4169    1.3336   -0.7837 H   0  0  0  0  0  0  0  0  0  0  0  0
    0.2181   -0.1031   -2.7098 H   0  0  0  0  0  0  0  0  0  0  0  0
    2.5379   -0.3772   -1.9009 H   0  0  0  0  0  0  0  0  0  0  0  0
    4.4219   -1.7520   -0.1297 H   0  0  0  0  0  0  0  0  0  0  0  0
    5.4548    0.1597    1.8707 H   0  0  0  0  0  0  0  0  0  0  0  0
    7.3042   -1.7334    0.2164 H   0  0  0  0  0  0  0  0  0  0  0  0
    6.6273   -2.0600    1.8038 H   0  0  0  0  0  0  0  0  0  0  0  0
    8.7902   -1.2472    2.1815 H   0  0  0  0  0  0  0  0  0  0  0  0
    7.7408    0.0445    2.7087 H   0  0  0  0  0  0  0  0  0  0  0  0
    9.6464    1.0683   -0.8706 H   0  0  0  0  0  0  0  0  0  0  0  0
    5.9295    1.1357   -2.1530 H   0  0  0  0  0  0  0  0  0  0  0  0
    1.2676    0.1777    2.0951 H   0  0  0  0  0  0  0  0  0  0  0  0
   -1.0961    0.4520    1.2604 H   0  0  0  0  0  0  0  0  0  0  0  0
   -3.4911   -0.3294    0.5413 H   0  0  0  0  0  0  0  0  0  0  0  0
  1  2  1  0
  2  3  2  0
  3  4  1  0
  4  5  2  0
  4  6  1  0
  6  7  2  0
  7  8  1  0
  7  9  1  0
  9 10  1  0
 10 11  1  0
 11 12  1  0
 12 13  1  0
 13 14  1  0
 14 15  2  0
 15 16  1  0
 16 17  2  0
 17 18  1  0
 18 19  2  0
 18 20  1  0
 20 21  1  0
 21 22  1  0
 22 23  1  0
 23 24  1  0
 24 25  2  0
 24 26  1  0
 21 27  1  0
 27 28  2  0
 27 29  1  0
 17 30  1  0
 30 31  2  0
 11 32  1  0
  8  2  1  0
 31 14  1  0
 32  6  1  0
  1 33  1  0
  1 34  1  0
  8 35  1  0
  9 36  1  0
 10 37  1  0
 10 38  1  0
 11 39  1  6
 12 40  1  0
 12 41  1  0
 13 42  1  0
 15 43  1  0
 16 44  1  0
 20 45  1  0
 21 46  1  1
 22 47  1  0
 22 48  1  0
 23 49  1  0
 23 50  1  0
 26 51  1  0
 29 52  1  0
 30 53  1  0
 31 54  1  0
 32 55  1  0
M  END
$$$$

     RDKit          3D

 55 57  0  0  0  0  0  0  0  0999 V2000
    9.8036   -1.4399   -0.4875 N   0  0  0  0  0  0  0  0  0  0  0  0
    8.4896   -0.8774   -0.5535 C   0  0  0  0  0  0  0  0  0  0  0  0
    7.9054   -0.6466   -1.7399 N   0  0  0  0  0  0  0  0  0  0  0  0
    6.6779   -0.1224   -1.8491 C   0  0  0  0  0  0  0  0  0  0  0  0
    6.1129    0.1016   -2.9449 O   0  0  0  0  0  0  0  0  0  0  0  0
    5.9828    0.1945   -0.6916 C   0  0  0  0  0  0  0  0  0  0  0  0
    6.5784   -0.0407    0.5195 C   0  0  0  0  0  0  0  0  0  0  0  0
    7.8253   -0.5745    0.5519 N   0  0  0  0  0  0  0  0  0  0  0  0
    5.8902    0.2757    1.7126 N   0  0  0  0  0  0  0  0  0  0  0  0
    4.5160    0.6791    1.6979 C   0  0  0  0  0  0  0  0  0  0  0  0
    4.1472    1.4123    0.4252 C   0  0  2  0  0  0  0  0  0  0  0  0
    2.6228    1.4636    0.2792 C   0  0  0  0  0  0  0  0  0  0  0  0
    2.0799    0.1214    0.2213 N   0  0  0  0  0  0  0  0  0  0  0  0
    0.6858   -0.0763    0.0865 C   0  0  0  0  0  0  0  0  0  0  0  0
    0.1566   -1.3467    0.0361 C   0  0  0  0  0  0  0  0  0  0  0  0
   -1.2112   -1.5520   -0.0967 C   0  0  0  0  0  0  0  0  0  0  0  0
   -2.1001   -0.5000   -0.1840 C   0  0  0  0  0  0  0  0  0  0  0  0
   -3.5303   -0.7458   -0.3225 C   0  0  0  0  0  0  0  0  0  0  0  0
   -3.9382   -1.9369   -0.3403 O   0  0  0  0  0  0  0  0  0  0  0  0
   -4.5097    0.2533   -0.4400 N   0  0  0  0  0  0  0  0  0  0  0  0
   -5.9400    0.0053   -0.5784 C   0  0  1  0  0  0  0  0  0  0  0  0
   -6.7285    0.6362    0.5064 C   0  0  0  0  0  0  0  0  0  0  0  0
   -8.1888    0.3965    0.3873 C   0  0  0  0  0  0  0  0  0  0  0  0
   -8.6114   -1.0050    0.4055 C   0  0  0  0  0  0  0  0  0  0  0  0
   -9.8579   -1.2223    0.2798 O   0  0  0  0  0  0  0  0  0  0  0  0
   -7.8096   -2.1126    0.5439 O   0  0  0  0  0  0  0  0  0  0  0  0
   -6.3854    0.4201   -1.9276 C   0  0  0  0  0  0  0  0  0  0  0  0
   -5.5721    0.9266   -2.7411 O   0  0  0  0  0  0  0  0  0  0  0  0
   -7.6923    0.2696   -2.3446 O   0  0  0  0  0  0  0  0  0  0  0  0
   -1.5675    0.7693   -0.1333 C   0  0  0  0  0  0  0  0  0  0  0  0
   -0.1902    0.9845    0.0004 C   0  0  0  0  0  0  0  0  0  0  0  0
    4.6823    0.7485   -0.7373 N   0  0  0  0  0  0  0  0  0  0  0  0
   10.0924   -2.2941   -1.0015 H   0  0  0  0  0  0  0  0  0  0  0  0
   10.5070   -0.9603    0.1126 H   0  0  0  0  0  0  0  0  0  0  0  0
    8.2556   -0.7433    1.4947 H   0  0  0  0  0  0  0  0  0  0  0  0
    6.3939    0.2128    2.6122 H   0  0  0  0  0  0  0  0  0  0  0  0
    3.8994   -0.2237    1.8454 H   0  0  0  0  0  0  0  0  0  0  0  0
    4.3369    1.3286    2.5964 H   0  0  0  0  0  0  0  0  0  0  0  0
    4.4859    2.4601    0.5332 H   0  0  0  0  0  0  0  0  0  0  0  0
    2.3402    2.0695   -0.6050 H   0  0  0  0  0  0  0  0  0  0  0  0
    2.1741    1.9925    1.1631 H   0  0  0  0  0  0  0  0  0  0  0  0
    2.6980   -0.7125    0.2765 H   0  0  0  0  0  0  0  0  0  0  0  0
    0.7907   -2.2023    0.0985 H   0  0  0  0  0  0  0  0  0  0  0  0
   -1.6126   -2.5628   -0.1348 H   0  0  0  0  0  0  0  0  0  0  0  0
   -4.2214    1.2514   -0.4306 H   0  0  0  0  0  0  0  0  0  0  0  0
   -6.0297   -1.1109   -0.5624 H   0  0  0  0  0  0  0  0  0  0  0  0
   -6.5845    1.7544    0.4397 H   0  0  0  0  0  0  0  0  0  0  0  0
   -6.3983    0.2555    1.4943 H   0  0  0  0  0  0  0  0  0  0  0  0
   -8.6801    1.0130   -0.4193 H   0  0  0  0  0  0  0  0  0  0  0  0
   -8.6471    0.8521    1.3297 H   0  0  0  0  0  0  0  0  0  0  0  0
   -8.1339   -3.0490    0.7070 H   0  0  0  0  0  0  0  0  0  0  0  0
   -8.0221    0.9006   -3.0681 H   0  0  0  0  0  0  0  0  0  0  0  0
   -2.2439    1.6171   -0.1998 H   0  0  0  0  0  0  0  0  0  0  0  0
    0.1488    2.0155    0.0324 H   0  0  0  0  0  0  0  0  0  0  0  0
    4.1272    0.6767   -1.5930 H   0  0  0  0  0  0  0  0  0  0  0  0
  1  2  1  0
  2  3  2  0
  3  4  1  0
  4  5  2  0
  4  6  1  0
  6  7  2  0
  7  8  1  0
  7  9  1  0
  9 10  1  0
 10 11  1  0
 11 12  1  0
 12 13  1  0
 13 14  1  0
 14 15  2  0
 15 16  1  0
 16 17  2  0
 17 18  1  0
 18 19  2  0
 18 20  1  0
 20 21  1  0
 21 22  1  0
 22 23  1  0
 23 24  1  0
 24 25  2  0
 24 26  1  0
 21 27  1  0
 27 28  2  0
 27 29  1  0
 17 30  1  0
 30 31  2  0
 11 32  1  0
  8  2  1  0
 31 14  1  0
 32  6  1  0
  1 33  1  0
  1 34  1  0
  8 35  1  0
  9 36  1  0
 10 37  1  0
 10 38  1  0
 11 39  1  1
 12 40  1  0
 12 41  1  0
 13 42  1  0
 15 43  1  0
 16 44  1  0
 20 45  1  0
 21 46  1  6
 22 47  1  0
 22 48  1  0
 23 49  1  0
 23 50  1  0
 26 51  1  0
 29 52  1  0
 30 53  1  0
 31 54  1  0
 32 55  1  0
M  END
$$$$

     RDKit          3D

 55 57  0  0  0  0  0  0  0  0999 V2000
   -9.5378   -0.1260   -1.1648 N   0  0  0  0  0  0  0  0  0  0  0  0
   -8.2676   -0.2955   -0.5562 C   0  0  0  0  0  0  0  0  0  0  0  0
   -8.0320   -1.3520    0.2221 N   0  0  0  0  0  0  0  0  0  0  0  0
   -6.8527   -1.5549    0.8217 C   0  0  0  0  0  0  0  0  0  0  0  0
   -6.6282   -2.5695    1.5682 O   0  0  0  0  0  0  0  0  0  0  0  0
   -5.8508   -0.6340    0.6221 C   0  0  0  0  0  0  0  0  0  0  0  0
   -6.0706    0.4707   -0.1810 C   0  0  0  0  0  0  0  0  0  0  0  0
   -7.3004    0.6120   -0.7604 N   0  0  0  0  0  0  0  0  0  0  0  0
   -5.0478    1.4289   -0.3992 N   0  0  0  0  0  0  0  0  0  0  0  0
   -3.8600    1.3839    0.4161 C   0  0  0  0  0  0  0  0  0  0  0  0
   -3.4658   -0.0488    0.6731 C   0  0  2  0  0  0  0  0  0  0  0  0
   -3.0189   -0.7299   -0.5984 C   0  0  0  0  0  0  0  0  0  0  0  0
   -1.8637   -0.1293   -1.2146 N   0  0  0  0  0  0  0  0  0  0  0  0
   -0.5538   -0.2214   -0.6337 C   0  0  0  0  0  0  0  0  0  0  0  0
   -0.2739   -1.0352    0.4440 C   0  0  0  0  0  0  0  0  0  0  0  0
    0.9989   -1.0886    0.9708 C   0  0  0  0  0  0  0  0  0  0  0  0
    2.0568   -0.3508    0.4689 C   0  0  0  0  0  0  0  0  0  0  0  0
    3.3762   -0.4552    1.0841 C   0  0  0  0  0  0  0  0  0  0  0  0
    3.4688   -1.0002    2.2236 O   0  0  0  0  0  0  0  0  0  0  0  0
    4.5804    0.0120    0.4970 N   0  0  0  0  0  0  0  0  0  0  0  0
    5.8662   -0.1174    1.1600 C   0  0  1  0  0  0  0  0  0  0  0  0
    6.6426   -1.1798    0.4135 C   0  0  0  0  0  0  0  0  0  0  0  0
    6.8721   -0.8842   -1.0327 C   0  0  0  0  0  0  0  0  0  0  0  0
    7.6491    0.3175   -1.3170 C   0  0  0  0  0  0  0  0  0  0  0  0
    8.7946    0.4650   -0.8343 O   0  0  0  0  0  0  0  0  0  0  0  0
    7.1831    1.3646   -2.1259 O   0  0  0  0  0  0  0  0  0  0  0  0
    6.6492    1.0980    1.2574 C   0  0  0  0  0  0  0  0  0  0  0  0
    6.3633    2.2121    0.7685 O   0  0  0  0  0  0  0  0  0  0  0  0
    7.8557    1.0335    1.9757 O   0  0  0  0  0  0  0  0  0  0  0  0
    1.7848    0.4640   -0.6077 C   0  0  0  0  0  0  0  0  0  0  0  0
    0.4951    0.5184   -1.1407 C   0  0  0  0  0  0  0  0  0  0  0  0
   -4.5823   -0.7617    1.2126 N   0  0  0  0  0  0  0  0  0  0  0  0
  -10.4369   -0.2536   -0.6493 H   0  0  0  0  0  0  0  0  0  0  0  0
   -9.6080    0.1366   -2.1729 H   0  0  0  0  0  0  0  0  0  0  0  0
   -7.4540    1.4627   -1.3743 H   0  0  0  0  0  0  0  0  0  0  0  0
   -5.2192    2.1360   -1.1626 H   0  0  0  0  0  0  0  0  0  0  0  0
   -3.0220    1.9616   -0.0536 H   0  0  0  0  0  0  0  0  0  0  0  0
   -4.1180    1.8573    1.3876 H   0  0  0  0  0  0  0  0  0  0  0  0
   -2.6322   -0.0103    1.4317 H   0  0  0  0  0  0  0  0  0  0  0  0
   -3.8667   -0.6534   -1.3181 H   0  0  0  0  0  0  0  0  0  0  0  0
   -2.8289   -1.7914   -0.3273 H   0  0  0  0  0  0  0  0  0  0  0  0
   -1.9803    0.3869   -2.1060 H   0  0  0  0  0  0  0  0  0  0  0  0
   -1.0687   -1.6442    0.8669 H   0  0  0  0  0  0  0  0  0  0  0  0
    1.2181   -1.7347    1.8267 H   0  0  0  0  0  0  0  0  0  0  0  0
    4.4961    0.4573   -0.4389 H   0  0  0  0  0  0  0  0  0  0  0  0
    5.7402   -0.5328    2.1924 H   0  0  0  0  0  0  0  0  0  0  0  0
    7.6516   -1.2162    0.8972 H   0  0  0  0  0  0  0  0  0  0  0  0
    6.1339   -2.1634    0.4985 H   0  0  0  0  0  0  0  0  0  0  0  0
    5.9279   -0.8128   -1.6188 H   0  0  0  0  0  0  0  0  0  0  0  0
    7.3784   -1.7970   -1.4543 H   0  0  0  0  0  0  0  0  0  0  0  0
    7.5355    2.3001   -1.9021 H   0  0  0  0  0  0  0  0  0  0  0  0
    8.3851    1.8672    2.2143 H   0  0  0  0  0  0  0  0  0  0  0  0
    2.5667    1.0505   -1.0269 H   0  0  0  0  0  0  0  0  0  0  0  0
    0.2598    1.1566   -1.9923 H   0  0  0  0  0  0  0  0  0  0  0  0
   -4.4890   -1.3885    2.0493 H   0  0  0  0  0  0  0  0  0  0  0  0
  1  2  1  0
  2  3  2  0
  3  4  1  0
  4  5  2  0
  4  6  1  0
  6  7  2  0
  7  8  1  0
  7  9  1  0
  9 10  1  0
 10 11  1  0
 11 12  1  0
 12 13  1  0
 13 14  1  0
 14 15  2  0
 15 16  1  0
 16 17  2  0
 17 18  1  0
 18 19  2  0
 18 20  1  0
 20 21  1  0
 21 22  1  0
 22 23  1  0
 23 24  1  0
 24 25  2  0
 24 26  1  0
 21 27  1  0
 27 28  2  0
 27 29  1  0
 17 30  1  0
 30 31  2  0
 11 32  1  0
  8  2  1  0
 31 14  1  0
 32  6  1  0
  1 33  1  0
  1 34  1  0
  8 35  1  0
  9 36  1  0
 10 37  1  0
 10 38  1  0
 11 39  1  1
 12 40  1  0
 12 41  1  0
 13 42  1  0
 15 43  1  0
 16 44  1  0
 20 45  1  0
 21 46  1  1
 22 47  1  0
 22 48  1  0
 23 49  1  0
 23 50  1  0
 26 51  1  0
 29 52  1  0
 30 53  1  0
 31 54  1  0
 32 55  1  0
M  END
$$$$

     RDKit          3D

 55 57  0  0  0  0  0  0  0  0999 V2000
   -9.0478   -2.3041   -1.2249 N   0  0  0  0  0  0  0  0  0  0  0  0
   -7.9394   -1.6735   -0.5689 C   0  0  0  0  0  0  0  0  0  0  0  0
   -7.3708   -2.2562    0.5039 N   0  0  0  0  0  0  0  0  0  0  0  0
   -6.3239   -1.6932    1.1498 C   0  0  0  0  0  0  0  0  0  0  0  0
   -5.7910   -2.2469    2.1618 O   0  0  0  0  0  0  0  0  0  0  0  0
   -5.8066   -0.4924    0.7190 C   0  0  0  0  0  0  0  0  0  0  0  0
   -6.3868    0.1060   -0.3787 C   0  0  0  0  0  0  0  0  0  0  0  0
   -7.4251   -0.4992   -0.9811 N   0  0  0  0  0  0  0  0  0  0  0  0
   -5.8529    1.3456   -0.8203 N   0  0  0  0  0  0  0  0  0  0  0  0
   -5.1919    2.2546    0.1212 C   0  0  0  0  0  0  0  0  0  0  0  0
   -4.2573    1.4797    1.0147 C   0  0  2  0  0  0  0  0  0  0  0  0
   -2.8833    1.5314    0.4083 C   0  0  0  0  0  0  0  0  0  0  0  0
   -1.9128    0.8057    1.2018 N   0  0  0  0  0  0  0  0  0  0  0  0
   -0.5685    0.7693    0.7576 C   0  0  0  0  0  0  0  0  0  0  0  0
   -0.1827    1.4339   -0.3819 C   0  0  0  0  0  0  0  0  0  0  0  0
    1.1403    1.3772   -0.7949 C   0  0  0  0  0  0  0  0  0  0  0  0
    2.0440    0.6480   -0.0441 C   0  0  0  0  0  0  0  0  0  0  0  0
    3.4382    0.5807   -0.4582 C   0  0  0  0  0  0  0  0  0  0  0  0
    3.8000    1.4243   -1.3479 O   0  0  0  0  0  0  0  0  0  0  0  0
    4.3821   -0.3291    0.0459 N   0  0  0  0  0  0  0  0  0  0  0  0
    5.7684   -0.3049   -0.4474 C   0  0  1  0  0  0  0  0  0  0  0  0
    6.6245    0.1063    0.6787 C   0  0  0  0  0  0  0  0  0  0  0  0
    8.0835    0.2184    0.5171 C   0  0  0  0  0  0  0  0  0  0  0  0
    8.8520   -0.9747    0.2159 C   0  0  0  0  0  0  0  0  0  0  0  0
    9.8294   -0.9567   -0.5715 O   0  0  0  0  0  0  0  0  0  0  0  0
    8.5211   -2.1867    0.8049 O   0  0  0  0  0  0  0  0  0  0  0  0
    6.0390   -1.5283   -1.1645 C   0  0  0  0  0  0  0  0  0  0  0  0
    5.2033   -2.5006   -1.2110 O   0  0  0  0  0  0  0  0  0  0  0  0
    7.2064   -1.7540   -1.8597 O   0  0  0  0  0  0  0  0  0  0  0  0
    1.6560   -0.0119    1.0892 C   0  0  0  0  0  0  0  0  0  0  0  0
    0.3429    0.0476    1.4944 C   0  0  0  0  0  0  0  0  0  0  0  0
   -4.7127    0.1642    1.3358 N   0  0  0  0  0  0  0  0  0  0  0  0
   -9.9094   -1.7417   -1.4439 H   0  0  0  0  0  0  0  0  0  0  0  0
   -9.0511   -3.3022   -1.5026 H   0  0  0  0  0  0  0  0  0  0  0  0
   -7.8383   -0.0279   -1.8008 H   0  0  0  0  0  0  0  0  0  0  0  0
   -5.9532    1.5812   -1.8467 H   0  0  0  0  0  0  0  0  0  0  0  0
   -4.6664    3.0342   -0.4513 H   0  0  0  0  0  0  0  0  0  0  0  0
   -5.9833    2.7727    0.7061 H   0  0  0  0  0  0  0  0  0  0  0  0
   -4.2000    2.0530    1.9737 H   0  0  0  0  0  0  0  0  0  0  0  0
   -2.9387    1.1393   -0.6378 H   0  0  0  0  0  0  0  0  0  0  0  0
   -2.5611    2.6065    0.4224 H   0  0  0  0  0  0  0  0  0  0  0  0
   -2.2125    0.3263    2.0777 H   0  0  0  0  0  0  0  0  0  0  0  0
   -0.8849    2.0027   -0.9687 H   0  0  0  0  0  0  0  0  0  0  0  0
    1.4949    1.8781   -1.6774 H   0  0  0  0  0  0  0  0  0  0  0  0
    4.0887   -1.0181    0.7683 H   0  0  0  0  0  0  0  0  0  0  0  0
    5.7965    0.5383   -1.2021 H   0  0  0  0  0  0  0  0  0  0  0  0
    6.3514   -0.4795    1.6212 H   0  0  0  0  0  0  0  0  0  0  0  0
    6.2642    1.1484    0.9760 H   0  0  0  0  0  0  0  0  0  0  0  0
    8.3697    0.9916   -0.2682 H   0  0  0  0  0  0  0  0  0  0  0  0
    8.4643    0.7298    1.4658 H   0  0  0  0  0  0  0  0  0  0  0  0
    8.6395   -3.0739    0.3308 H   0  0  0  0  0  0  0  0  0  0  0  0
    7.2615   -2.3451   -2.6967 H   0  0  0  0  0  0  0  0  0  0  0  0
    2.3606   -0.5751    1.6690 H   0  0  0  0  0  0  0  0  0  0  0  0
    0.0340   -0.4657    2.3789 H   0  0  0  0  0  0  0  0  0  0  0  0
   -4.2039   -0.3536    2.0787 H   0  0  0  0  0  0  0  0  0  0  0  0
  1  2  1  0
  2  3  2  0
  3  4  1  0
  4  5  2  0
  4  6  1  0
  6  7  2  0
  7  8  1  0
  7  9  1  0
  9 10  1  0
 10 11  1  0
 11 12  1  0
 12 13  1  0
 13 14  1  0
 14 15  2  0
 15 16  1  0
 16 17  2  0
 17 18  1  0
 18 19  2  0
 18 20  1  0
 20 21  1  0
 21 22  1  0
 22 23  1  0
 23 24  1  0
 24 25  2  0
 24 26  1  0
 21 27  1  0
 27 28  2  0
 27 29  1  0
 17 30  1  0
 30 31  2  0
 11 32  1  0
  8  2  1  0
 31 14  1  0
 32  6  1  0
  1 33  1  0
  1 34  1  0
  8 35  1  0
  9 36  1  0
 10 37  1  0
 10 38  1  0
 11 39  1  1
 12 40  1  0
 12 41  1  0
 13 42  1  0
 15 43  1  0
 16 44  1  0
 20 45  1  0
 21 46  1  6
 22 47  1  0
 22 48  1  0
 23 49  1  0
 23 50  1  0
 26 51  1  0
 29 52  1  0
 30 53  1  0
 31 54  1  0
 32 55  1  0
M  END
$$$$

     RDKit          3D

 55 57  0  0  0  0  0  0  0  0999 V2000
   -9.1916   -1.4101   -0.5072 N   0  0  0  0  0  0  0  0  0  0  0  0
   -7.8142   -1.2995   -0.7524 C   0  0  0  0  0  0  0  0  0  0  0  0
   -7.2456   -1.4419   -1.9650 N   0  0  0  0  0  0  0  0  0  0  0  0
   -5.9246   -1.3303   -2.1684 C   0  0  0  0  0  0  0  0  0  0  0  0
   -5.3748   -1.4602   -3.2929 O   0  0  0  0  0  0  0  0  0  0  0  0
   -5.0888   -1.0560   -1.0953 C   0  0  0  0  0  0  0  0  0  0  0  0
   -5.6556   -0.9095    0.1404 C   0  0  0  0  0  0  0  0  0  0  0  0
   -6.9954   -1.0350    0.2751 N   0  0  0  0  0  0  0  0  0  0  0  0
   -4.8109   -0.6289    1.2465 N   0  0  0  0  0  0  0  0  0  0  0  0
   -3.3708   -0.7388    1.1786 C   0  0  0  0  0  0  0  0  0  0  0  0
   -2.8467   -0.3602   -0.1927 C   0  0  2  0  0  0  0  0  0  0  0  0
   -2.7678    1.1354   -0.3645 C   0  0  0  0  0  0  0  0  0  0  0  0
   -1.9121    1.7893    0.5690 N   0  0  0  0  0  0  0  0  0  0  0  0
   -0.5172    1.6962    0.6680 C   0  0  0  0  0  0  0  0  0  0  0  0
    0.2394    1.0812   -0.2980 C   0  0  0  0  0  0  0  0  0  0  0  0
    1.6280    0.9741   -0.2057 C   0  0  0  0  0  0  0  0  0  0  0  0
    2.2985    1.4834    0.8628 C   0  0  0  0  0  0  0  0  0  0  0  0
    3.7434    1.4212    1.0474 C   0  0  0  0  0  0  0  0  0  0  0  0
    4.3025    1.9465    2.0606 O   0  0  0  0  0  0  0  0  0  0  0  0
    4.6315    0.7837    0.1336 N   0  0  0  0  0  0  0  0  0  0  0  0
    6.0637    0.7237    0.3181 C   0  0  1  0  0  0  0  0  0  0  0  0
    6.6025   -0.6185    0.6583 C   0  0  0  0  0  0  0  0  0  0  0  0
    6.3842   -1.7154   -0.3070 C   0  0  0  0  0  0  0  0  0  0  0  0
    4.9460   -1.9874   -0.5299 C   0  0  0  0  0  0  0  0  0  0  0  0
    4.4421   -2.1631   -1.6899 O   0  0  0  0  0  0  0  0  0  0  0  0
    4.0491   -2.0678    0.5407 O   0  0  0  0  0  0  0  0  0  0  0  0
    6.6911    1.3323   -0.8715 C   0  0  0  0  0  0  0  0  0  0  0  0
    6.0168    1.7914   -1.8199 O   0  0  0  0  0  0  0  0  0  0  0  0
    8.0694    1.4080   -0.9621 O   0  0  0  0  0  0  0  0  0  0  0  0
    1.5500    2.1051    1.8425 C   0  0  0  0  0  0  0  0  0  0  0  0
    0.1774    2.2167    1.7616 C   0  0  0  0  0  0  0  0  0  0  0  0
   -3.6915   -0.9223   -1.2295 N   0  0  0  0  0  0  0  0  0  0  0  0
   -9.6294   -2.3551   -0.4270 H   0  0  0  0  0  0  0  0  0  0  0  0
   -9.8441   -0.5942   -0.3935 H   0  0  0  0  0  0  0  0  0  0  0  0
   -7.3794   -0.9154    1.2338 H   0  0  0  0  0  0  0  0  0  0  0  0
   -5.2709   -0.3342    2.1301 H   0  0  0  0  0  0  0  0  0  0  0  0
   -3.1136   -1.7923    1.4042 H   0  0  0  0  0  0  0  0  0  0  0  0
   -2.9476   -0.0658    1.9387 H   0  0  0  0  0  0  0  0  0  0  0  0
   -1.8334   -0.7787   -0.2746 H   0  0  0  0  0  0  0  0  0  0  0  0
   -3.8224    1.5130   -0.2808 H   0  0  0  0  0  0  0  0  0  0  0  0
   -2.4600    1.3154   -1.4314 H   0  0  0  0  0  0  0  0  0  0  0  0
   -2.3845    2.4285    1.2805 H   0  0  0  0  0  0  0  0  0  0  0  0
   -0.2224    0.6617   -1.1798 H   0  0  0  0  0  0  0  0  0  0  0  0
    2.1918    0.4793   -0.9922 H   0  0  0  0  0  0  0  0  0  0  0  0
    4.1990    0.3546   -0.7059 H   0  0  0  0  0  0  0  0  0  0  0  0
    6.2650    1.3600    1.2443 H   0  0  0  0  0  0  0  0  0  0  0  0
    6.1757   -0.8872    1.6685 H   0  0  0  0  0  0  0  0  0  0  0  0
    7.7099   -0.5452    0.8747 H   0  0  0  0  0  0  0  0  0  0  0  0
    6.9090   -1.5883   -1.2737 H   0  0  0  0  0  0  0  0  0  0  0  0
    6.8022   -2.6848    0.0981 H   0  0  0  0  0  0  0  0  0  0  0  0
    3.0479   -2.1306    0.3466 H   0  0  0  0  0  0  0  0  0  0  0  0
    8.5543    1.8259   -1.7633 H   0  0  0  0  0  0  0  0  0  0  0  0
    2.0702    2.5258    2.7178 H   0  0  0  0  0  0  0  0  0  0  0  0
   -0.4052    2.7008    2.5243 H   0  0  0  0  0  0  0  0  0  0  0  0
   -3.2402   -1.2365   -2.1025 H   0  0  0  0  0  0  0  0  0  0  0  0
  1  2  1  0
  2  3  2  0
  3  4  1  0
  4  5  2  0
  4  6  1  0
  6  7  2  0
  7  8  1  0
  7  9  1  0
  9 10  1  0
 10 11  1  0
 11 12  1  0
 12 13  1  0
 13 14  1  0
 14 15  2  0
 15 16  1  0
 16 17  2  0
 17 18  1  0
 18 19  2  0
 18 20  1  0
 20 21  1  0
 21 22  1  0
 22 23  1  0
 23 24  1  0
 24 25  2  0
 24 26  1  0
 21 27  1  0
 27 28  2  0
 27 29  1  0
 17 30  1  0
 30 31  2  0
 11 32  1  0
  8  2  1  0
 31 14  1  0
 32  6  1  0
  1 33  1  0
  1 34  1  0
  8 35  1  0
  9 36  1  0
 10 37  1  0
 10 38  1  0
 11 39  1  6
 12 40  1  0
 12 41  1  0
 13 42  1  0
 15 43  1  0
 16 44  1  0
 20 45  1  0
 21 46  1  1
 22 47  1  0
 22 48  1  0
 23 49  1  0
 23 50  1  0
 26 51  1  0
 29 52  1  0
 30 53  1  0
 31 54  1  0
 32 55  1  0
M  END
$$$$

     RDKit          3D

 55 57  0  0  0  0  0  0  0  0999 V2000
   -9.3965    0.6649   -0.2445 N   0  0  0  0  0  0  0  0  0  0  0  0
   -8.0658    0.3195   -0.6444 C   0  0  0  0  0  0  0  0  0  0  0  0
   -7.5488    0.6614   -1.8382 N   0  0  0  0  0  0  0  0  0  0  0  0
   -6.2911    0.3488   -2.2054 C   0  0  0  0  0  0  0  0  0  0  0  0
   -5.8045    0.6682   -3.3250 O   0  0  0  0  0  0  0  0  0  0  0  0
   -5.4744   -0.3492   -1.3482 C   0  0  0  0  0  0  0  0  0  0  0  0
   -5.9918   -0.7126   -0.1105 C   0  0  0  0  0  0  0  0  0  0  0  0
   -7.2771   -0.3647    0.2040 N   0  0  0  0  0  0  0  0  0  0  0  0
   -5.1544   -1.4311    0.7709 N   0  0  0  0  0  0  0  0  0  0  0  0
   -3.8474   -1.9184    0.4133 C   0  0  0  0  0  0  0  0  0  0  0  0
   -3.2280   -0.8544   -0.5189 C   0  0  2  0  0  0  0  0  0  0  0  0
   -3.1803    0.4023    0.3037 C   0  0  0  0  0  0  0  0  0  0  0  0
   -2.3605    0.1919    1.4608 N   0  0  0  0  0  0  0  0  0  0  0  0
   -0.9374    0.1458    1.3224 C   0  0  0  0  0  0  0  0  0  0  0  0
   -0.2542    0.3705    0.1661 C   0  0  0  0  0  0  0  0  0  0  0  0
    1.1366    0.3361    0.1137 C   0  0  0  0  0  0  0  0  0  0  0  0
    1.9000    0.0762    1.2220 C   0  0  0  0  0  0  0  0  0  0  0  0
    3.3572    0.0669    1.2064 C   0  0  0  0  0  0  0  0  0  0  0  0
    4.0334   -0.4004    2.1608 O   0  0  0  0  0  0  0  0  0  0  0  0
    4.0738    0.5891    0.1131 N   0  0  0  0  0  0  0  0  0  0  0  0
    5.5356    0.5816    0.1071 C   0  0  1  0  0  0  0  0  0  0  0  0
    6.0796    0.1456   -1.1954 C   0  0  0  0  0  0  0  0  0  0  0  0
    7.5750    0.1016   -1.2815 C   0  0  0  0  0  0  0  0  0  0  0  0
    8.2370   -0.7794   -0.3080 C   0  0  0  0  0  0  0  0  0  0  0  0
    7.9970   -0.7572    0.9308 O   0  0  0  0  0  0  0  0  0  0  0  0
    9.2113   -1.7370   -0.7024 O   0  0  0  0  0  0  0  0  0  0  0  0
    5.9430    1.9648    0.4060 C   0  0  0  0  0  0  0  0  0  0  0  0
    5.1195    2.8750    0.5478 O   0  0  0  0  0  0  0  0  0  0  0  0
    7.2865    2.2680    0.5376 O   0  0  0  0  0  0  0  0  0  0  0  0
    1.2052   -0.1548    2.4063 C   0  0  0  0  0  0  0  0  0  0  0  0
   -0.1645   -0.1251    2.4748 C   0  0  0  0  0  0  0  0  0  0  0  0
   -4.1203   -0.6922   -1.6727 N   0  0  0  0  0  0  0  0  0  0  0  0
   -9.5925    1.6663   -0.0606 H   0  0  0  0  0  0  0  0  0  0  0  0
  -10.1636   -0.0289   -0.1273 H   0  0  0  0  0  0  0  0  0  0  0  0
   -7.6654   -0.6403    1.1525 H   0  0  0  0  0  0  0  0  0  0  0  0
   -5.5339   -1.6065    1.7471 H   0  0  0  0  0  0  0  0  0  0  0  0
   -3.1594   -1.9548    1.2735 H   0  0  0  0  0  0  0  0  0  0  0  0
   -3.8703   -2.8383   -0.2035 H   0  0  0  0  0  0  0  0  0  0  0  0
   -2.2456   -1.2062   -0.7960 H   0  0  0  0  0  0  0  0  0  0  0  0
   -4.2025    0.7450    0.5949 H   0  0  0  0  0  0  0  0  0  0  0  0
   -2.6754    1.2416   -0.2665 H   0  0  0  0  0  0  0  0  0  0  0  0
   -2.8084    0.0752    2.4187 H   0  0  0  0  0  0  0  0  0  0  0  0
   -0.8136    0.5972   -0.7333 H   0  0  0  0  0  0  0  0  0  0  0  0
    1.6061    0.5149   -0.8400 H   0  0  0  0  0  0  0  0  0  0  0  0
    3.6251    0.9972   -0.7334 H   0  0  0  0  0  0  0  0  0  0  0  0
    5.8483   -0.0551    0.9511 H   0  0  0  0  0  0  0  0  0  0  0  0
    5.7171   -0.9040   -1.3958 H   0  0  0  0  0  0  0  0  0  0  0  0
    5.7517    0.8207   -2.0291 H   0  0  0  0  0  0  0  0  0  0  0  0
    7.8969   -0.2975   -2.3037 H   0  0  0  0  0  0  0  0  0  0  0  0
    8.0588    1.1032   -1.2435 H   0  0  0  0  0  0  0  0  0  0  0  0
    9.7512   -2.2190   -0.0043 H   0  0  0  0  0  0  0  0  0  0  0  0
    7.6229    2.9588    1.1985 H   0  0  0  0  0  0  0  0  0  0  0  0
    1.8185   -0.3616    3.2945 H   0  0  0  0  0  0  0  0  0  0  0  0
   -0.6979   -0.3057    3.3918 H   0  0  0  0  0  0  0  0  0  0  0  0
   -3.8616   -0.8037   -2.6492 H   0  0  0  0  0  0  0  0  0  0  0  0
  1  2  1  0
  2  3  2  0
  3  4  1  0
  4  5  2  0
  4  6  1  0
  6  7  2  0
  7  8  1  0
  7  9  1  0
  9 10  1  0
 10 11  1  0
 11 12  1  0
 12 13  1  0
 13 14  1  0
 14 15  2  0
 15 16  1  0
 16 17  2  0
 17 18  1  0
 18 19  2  0
 18 20  1  0
 20 21  1  0
 21 22  1  0
 22 23  1  0
 23 24  1  0
 24 25  2  0
 24 26  1  0
 21 27  1  0
 27 28  2  0
 27 29  1  0
 17 30  1  0
 30 31  2  0
 11 32  1  0
  8  2  1  0
 31 14  1  0
 32  6  1  0
  1 33  1  0
  1 34  1  0
  8 35  1  0
  9 36  1  0
 10 37  1  0
 10 38  1  0
 11 39  1  6
 12 40  1  0
 12 41  1  0
 13 42  1  0
 15 43  1  0
 16 44  1  0
 20 45  1  0
 21 46  1  1
 22 47  1  0
 22 48  1  0
 23 49  1  0
 23 50  1  0
 26 51  1  0
 29 52  1  0
 30 53  1  0
 31 54  1  0
 32 55  1  0
M  END
$$$$

     RDKit          3D

 55 57  0  0  0  0  0  0  0  0999 V2000
    9.8198   -0.8914    1.3383 N   0  0  0  0  0  0  0  0  0  0  0  0
    8.4503   -0.8528    0.8970 C   0  0  0  0  0  0  0  0  0  0  0  0
    7.9031   -1.8994    0.2575 N   0  0  0  0  0  0  0  0  0  0  0  0
    6.6019   -1.7956   -0.1337 C   0  0  0  0  0  0  0  0  0  0  0  0
    6.0354   -2.7592   -0.7435 O   0  0  0  0  0  0  0  0  0  0  0  0
    5.8496   -0.6831    0.0980 C   0  0  0  0  0  0  0  0  0  0  0  0
    6.4322    0.3782    0.7570 C   0  0  0  0  0  0  0  0  0  0  0  0
    7.7355    0.2632    1.1443 N   0  0  0  0  0  0  0  0  0  0  0  0
    5.6891    1.5656    1.0259 N   0  0  0  0  0  0  0  0  0  0  0  0
    4.2491    1.5282    0.8152 C   0  0  0  0  0  0  0  0  0  0  0  0
    3.9808    0.7821   -0.4493 C   0  0  2  0  0  0  0  0  0  0  0  0
    2.5616    0.8516   -0.9335 C   0  0  0  0  0  0  0  0  0  0  0  0
    1.6081    0.3351   -0.0070 N   0  0  0  0  0  0  0  0  0  0  0  0
    0.2345    0.2939   -0.3449 C   0  0  0  0  0  0  0  0  0  0  0  0
   -0.7123   -0.0691    0.5800 C   0  0  0  0  0  0  0  0  0  0  0  0
   -2.0643   -0.1223    0.2635 C   0  0  0  0  0  0  0  0  0  0  0  0
   -2.5072    0.1866   -0.9889 C   0  0  0  0  0  0  0  0  0  0  0  0
   -3.9046    0.1622   -1.3764 C   0  0  0  0  0  0  0  0  0  0  0  0
   -4.2206    0.1791   -2.5973 O   0  0  0  0  0  0  0  0  0  0  0  0
   -4.9904    0.1214   -0.4481 N   0  0  0  0  0  0  0  0  0  0  0  0
   -6.3692    0.1003   -0.8637 C   0  0  1  0  0  0  0  0  0  0  0  0
   -7.1010   -1.1290   -0.5596 C   0  0  0  0  0  0  0  0  0  0  0  0
   -7.2932   -1.5955    0.8161 C   0  0  0  0  0  0  0  0  0  0  0  0
   -6.0855   -1.8909    1.6069 C   0  0  0  0  0  0  0  0  0  0  0  0
   -5.7543   -1.1750    2.5928 O   0  0  0  0  0  0  0  0  0  0  0  0
   -5.3116   -2.9843    1.2403 O   0  0  0  0  0  0  0  0  0  0  0  0
   -7.0779    1.3580   -0.5039 C   0  0  0  0  0  0  0  0  0  0  0  0
   -6.6005    2.3311    0.0784 O   0  0  0  0  0  0  0  0  0  0  0  0
   -8.4204    1.4296   -0.8694 O   0  0  0  0  0  0  0  0  0  0  0  0
   -1.5491    0.5523   -1.9202 C   0  0  0  0  0  0  0  0  0  0  0  0
   -0.2111    0.6115   -1.6296 C   0  0  0  0  0  0  0  0  0  0  0  0
    4.4790   -0.5644   -0.3115 N   0  0  0  0  0  0  0  0  0  0  0  0
   10.3774   -0.0372    1.5430 H   0  0  0  0  0  0  0  0  0  0  0  0
   10.2862   -1.8133    1.4617 H   0  0  0  0  0  0  0  0  0  0  0  0
    8.1560    1.0834    1.6423 H   0  0  0  0  0  0  0  0  0  0  0  0
    6.1763    2.4356    1.3628 H   0  0  0  0  0  0  0  0  0  0  0  0
    3.7989    2.5295    0.7535 H   0  0  0  0  0  0  0  0  0  0  0  0
    3.8273    0.9251    1.6701 H   0  0  0  0  0  0  0  0  0  0  0  0
    4.5993    1.2502   -1.2747 H   0  0  0  0  0  0  0  0  0  0  0  0
    2.5300    0.2998   -1.9045 H   0  0  0  0  0  0  0  0  0  0  0  0
    2.3730    1.9398   -1.1757 H   0  0  0  0  0  0  0  0  0  0  0  0
    1.9119   -0.0122    0.9173 H   0  0  0  0  0  0  0  0  0  0  0  0
   -0.3911   -0.3188    1.5805 H   0  0  0  0  0  0  0  0  0  0  0  0
   -2.7911   -0.4111    1.0060 H   0  0  0  0  0  0  0  0  0  0  0  0
   -4.6994    0.1219    0.5489 H   0  0  0  0  0  0  0  0  0  0  0  0
   -6.3339    0.1575   -1.9996 H   0  0  0  0  0  0  0  0  0  0  0  0
   -6.5681   -1.9766   -1.1111 H   0  0  0  0  0  0  0  0  0  0  0  0
   -8.1223   -1.1651   -1.0630 H   0  0  0  0  0  0  0  0  0  0  0  0
   -7.8187   -2.6026    0.7313 H   0  0  0  0  0  0  0  0  0  0  0  0
   -8.0369   -0.9968    1.4039 H   0  0  0  0  0  0  0  0  0  0  0  0
   -4.4746   -3.1579    1.7749 H   0  0  0  0  0  0  0  0  0  0  0  0
   -8.9005    2.3426   -0.9437 H   0  0  0  0  0  0  0  0  0  0  0  0
   -1.8452    0.8088   -2.9353 H   0  0  0  0  0  0  0  0  0  0  0  0
    0.5600    0.8932   -2.3346 H   0  0  0  0  0  0  0  0  0  0  0  0
    3.9287   -1.4366   -0.4849 H   0  0  0  0  0  0  0  0  0  0  0  0
  1  2  1  0
  2  3  2  0
  3  4  1  0
  4  5  2  0
  4  6  1  0
  6  7  2  0
  7  8  1  0
  7  9  1  0
  9 10  1  0
 10 11  1  0
 11 12  1  0
 12 13  1  0
 13 14  1  0
 14 15  2  0
 15 16  1  0
 16 17  2  0
 17 18  1  0
 18 19  2  0
 18 20  1  0
 20 21  1  0
 21 22  1  0
 22 23  1  0
 23 24  1  0
 24 25  2  0
 24 26  1  0
 21 27  1  0
 27 28  2  0
 27 29  1  0
 17 30  1  0
 30 31  2  0
 11 32  1  0
  8  2  1  0
 31 14  1  0
 32  6  1  0
  1 33  1  0
  1 34  1  0
  8 35  1  0
  9 36  1  0
 10 37  1  0
 10 38  1  0
 11 39  1  6
 12 40  1  0
 12 41  1  0
 13 42  1  0
 15 43  1  0
 16 44  1  0
 20 45  1  0
 21 46  1  6
 22 47  1  0
 22 48  1  0
 23 49  1  0
 23 50  1  0
 26 51  1  0
 29 52  1  0
 30 53  1  0
 31 54  1  0
 32 55  1  0
M  END
$$$$

     RDKit          3D

 55 57  0  0  0  0  0  0  0  0999 V2000
    9.1110    1.6668   -0.3212 N   0  0  0  0  0  0  0  0  0  0  0  0
    7.7645    1.2947   -0.1365 C   0  0  0  0  0  0  0  0  0  0  0  0
    6.7997    1.8999   -0.8681 N   0  0  0  0  0  0  0  0  0  0  0  0
    5.4871    1.5667   -0.7172 C   0  0  0  0  0  0  0  0  0  0  0  0
    4.5847    2.1214   -1.3903 O   0  0  0  0  0  0  0  0  0  0  0  0
    5.1474    0.5992    0.1952 C   0  0  0  0  0  0  0  0  0  0  0  0
    6.1247   -0.0210    0.9435 C   0  0  0  0  0  0  0  0  0  0  0  0
    7.4175    0.3468    0.7556 N   0  0  0  0  0  0  0  0  0  0  0  0
    5.7045   -1.0032    1.8610 N   0  0  0  0  0  0  0  0  0  0  0  0
    4.4439   -1.6703    1.8227 C   0  0  0  0  0  0  0  0  0  0  0  0
    3.4022   -1.0513    0.9585 C   0  0  2  0  0  0  0  0  0  0  0  0
    3.2064   -1.9865   -0.2326 C   0  0  0  0  0  0  0  0  0  0  0  0
    2.2079   -1.4390   -1.0996 N   0  0  0  0  0  0  0  0  0  0  0  0
    0.8507   -1.3291   -0.7616 C   0  0  0  0  0  0  0  0  0  0  0  0
    0.0379   -0.5650   -1.6078 C   0  0  0  0  0  0  0  0  0  0  0  0
   -1.2980   -0.4591   -1.3031 C   0  0  0  0  0  0  0  0  0  0  0  0
   -1.8914   -1.0595   -0.2134 C   0  0  0  0  0  0  0  0  0  0  0  0
   -3.3164   -0.9312    0.0860 C   0  0  0  0  0  0  0  0  0  0  0  0
   -3.7674   -1.5381    1.0923 O   0  0  0  0  0  0  0  0  0  0  0  0
   -4.2087   -0.1749   -0.6785 N   0  0  0  0  0  0  0  0  0  0  0  0
   -5.6585   -0.0537   -0.3637 C   0  0  1  0  0  0  0  0  0  0  0  0
   -5.9927    1.3832   -0.1457 C   0  0  0  0  0  0  0  0  0  0  0  0
   -7.4412    1.5604    0.1925 C   0  0  0  0  0  0  0  0  0  0  0  0
   -7.7579    3.0056    0.4528 C   0  0  0  0  0  0  0  0  0  0  0  0
   -6.8309    3.8336    0.3554 O   0  0  0  0  0  0  0  0  0  0  0  0
   -9.0221    3.4405    0.7913 O   0  0  0  0  0  0  0  0  0  0  0  0
   -6.3251   -0.5632   -1.5833 C   0  0  0  0  0  0  0  0  0  0  0  0
   -5.6896   -0.8894   -2.6314 O   0  0  0  0  0  0  0  0  0  0  0  0
   -7.7063   -0.6974   -1.5885 O   0  0  0  0  0  0  0  0  0  0  0  0
   -1.0553   -1.8015    0.5922 C   0  0  0  0  0  0  0  0  0  0  0  0
    0.3058   -1.9496    0.3407 C   0  0  0  0  0  0  0  0  0  0  0  0
    3.8111    0.2176    0.3882 N   0  0  0  0  0  0  0  0  0  0  0  0
    9.8531    0.9676   -0.5664 H   0  0  0  0  0  0  0  0  0  0  0  0
    9.3744    2.6570   -0.2121 H   0  0  0  0  0  0  0  0  0  0  0  0
    8.1395   -0.1292    1.3257 H   0  0  0  0  0  0  0  0  0  0  0  0
    6.3661   -1.2664    2.6324 H   0  0  0  0  0  0  0  0  0  0  0  0
    4.0342   -1.7538    2.8666 H   0  0  0  0  0  0  0  0  0  0  0  0
    4.6596   -2.7432    1.5430 H   0  0  0  0  0  0  0  0  0  0  0  0
    2.4688   -0.8692    1.5147 H   0  0  0  0  0  0  0  0  0  0  0  0
    2.9132   -3.0098    0.1232 H   0  0  0  0  0  0  0  0  0  0  0  0
    4.1770   -2.1077   -0.7288 H   0  0  0  0  0  0  0  0  0  0  0  0
    2.5529   -1.1057   -2.0517 H   0  0  0  0  0  0  0  0  0  0  0  0
    0.4726   -0.0689   -2.4891 H   0  0  0  0  0  0  0  0  0  0  0  0
   -1.9131    0.1373   -1.9705 H   0  0  0  0  0  0  0  0  0  0  0  0
   -3.8877    0.3413   -1.5117 H   0  0  0  0  0  0  0  0  0  0  0  0
   -5.8540   -0.6504    0.5339 H   0  0  0  0  0  0  0  0  0  0  0  0
   -5.3270    1.8347    0.6484 H   0  0  0  0  0  0  0  0  0  0  0  0
   -5.8029    2.0083   -1.0607 H   0  0  0  0  0  0  0  0  0  0  0  0
   -7.6809    0.9897    1.1005 H   0  0  0  0  0  0  0  0  0  0  0  0
   -8.1036    1.2491   -0.6692 H   0  0  0  0  0  0  0  0  0  0  0  0
   -9.1867    4.2927    1.3235 H   0  0  0  0  0  0  0  0  0  0  0  0
   -8.2502   -0.5356   -2.4333 H   0  0  0  0  0  0  0  0  0  0  0  0
   -1.4421   -2.3070    1.4710 H   0  0  0  0  0  0  0  0  0  0  0  0
    0.9255   -2.5621    1.0136 H   0  0  0  0  0  0  0  0  0  0  0  0
    3.0660    0.8775    0.1070 H   0  0  0  0  0  0  0  0  0  0  0  0
  1  2  1  0
  2  3  2  0
  3  4  1  0
  4  5  2  0
  4  6  1  0
  6  7  2  0
  7  8  1  0
  7  9  1  0
  9 10  1  0
 10 11  1  0
 11 12  1  0
 12 13  1  0
 13 14  1  0
 14 15  2  0
 15 16  1  0
 16 17  2  0
 17 18  1  0
 18 19  2  0
 18 20  1  0
 20 21  1  0
 21 22  1  0
 22 23  1  0
 23 24  1  0
 24 25  2  0
 24 26  1  0
 21 27  1  0
 27 28  2  0
 27 29  1  0
 17 30  1  0
 30 31  2  0
 11 32  1  0
  8  2  1  0
 31 14  1  0
 32  6  1  0
  1 33  1  0
  1 34  1  0
  8 35  1  0
  9 36  1  0
 10 37  1  0
 10 38  1  0
 11 39  1  1
 12 40  1  0
 12 41  1  0
 13 42  1  0
 15 43  1  0
 16 44  1  0
 20 45  1  0
 21 46  1  1
 22 47  1  0
 22 48  1  0
 23 49  1  0
 23 50  1  0
 26 51  1  0
 29 52  1  0
 30 53  1  0
 31 54  1  0
 32 55  1  0
M  END
$$$$

     RDKit          3D

 55 57  0  0  0  0  0  0  0  0999 V2000
    9.2261    1.1583   -0.7880 N   0  0  0  0  0  0  0  0  0  0  0  0
    7.9031    1.0416   -0.2862 C   0  0  0  0  0  0  0  0  0  0  0  0
    7.1532    2.1207    0.0176 N   0  0  0  0  0  0  0  0  0  0  0  0
    5.8833    2.0181    0.4937 C   0  0  0  0  0  0  0  0  0  0  0  0
    5.1870    3.0238    0.7761 O   0  0  0  0  0  0  0  0  0  0  0  0
    5.3582    0.7651    0.6668 C   0  0  0  0  0  0  0  0  0  0  0  0
    6.1114   -0.3457    0.3615 C   0  0  0  0  0  0  0  0  0  0  0  0
    7.3560   -0.1856   -0.1041 N   0  0  0  0  0  0  0  0  0  0  0  0
    5.5570   -1.6435    0.5387 N   0  0  0  0  0  0  0  0  0  0  0  0
    4.3096   -1.7963    1.2436 C   0  0  0  0  0  0  0  0  0  0  0  0
    3.3756   -0.6653    0.8536 C   0  0  2  0  0  0  0  0  0  0  0  0
    3.2150   -0.6911   -0.6461 C   0  0  0  0  0  0  0  0  0  0  0  0
    2.3175    0.3434   -1.1103 N   0  0  0  0  0  0  0  0  0  0  0  0
    0.9309    0.2681   -0.8564 C   0  0  0  0  0  0  0  0  0  0  0  0
    0.4091   -0.9022   -0.3606 C   0  0  0  0  0  0  0  0  0  0  0  0
   -0.9461   -1.0152   -0.1024 C   0  0  0  0  0  0  0  0  0  0  0  0
   -1.8230    0.0246   -0.3277 C   0  0  0  0  0  0  0  0  0  0  0  0
   -3.2552   -0.1908   -0.0355 C   0  0  0  0  0  0  0  0  0  0  0  0
   -3.6262   -1.3694    0.1136 O   0  0  0  0  0  0  0  0  0  0  0  0
   -4.1834    0.8736    0.0759 N   0  0  0  0  0  0  0  0  0  0  0  0
   -5.5989    0.6728    0.3784 C   0  0  1  0  0  0  0  0  0  0  0  0
   -6.4231    0.6744   -0.8406 C   0  0  0  0  0  0  0  0  0  0  0  0
   -7.8852    0.3885   -0.7214 C   0  0  0  0  0  0  0  0  0  0  0  0
   -8.1918   -1.0198   -0.3596 C   0  0  0  0  0  0  0  0  0  0  0  0
   -7.3487   -1.9381   -0.4161 O   0  0  0  0  0  0  0  0  0  0  0  0
   -9.4938   -1.3673    0.0721 O   0  0  0  0  0  0  0  0  0  0  0  0
   -5.8842   -0.2189    1.4912 C   0  0  0  0  0  0  0  0  0  0  0  0
   -5.0341   -0.9460    2.1078 O   0  0  0  0  0  0  0  0  0  0  0  0
   -7.1870   -0.3593    2.0228 O   0  0  0  0  0  0  0  0  0  0  0  0
   -1.3186    1.1969   -0.8214 C   0  0  0  0  0  0  0  0  0  0  0  0
    0.0340    1.2972   -1.0739 C   0  0  0  0  0  0  0  0  0  0  0  0
    4.0515    0.6140    1.1472 N   0  0  0  0  0  0  0  0  0  0  0  0
    9.4395    2.0046   -1.3565 H   0  0  0  0  0  0  0  0  0  0  0  0
    9.9848    0.4669   -0.6299 H   0  0  0  0  0  0  0  0  0  0  0  0
    7.9160   -1.0356   -0.3292 H   0  0  0  0  0  0  0  0  0  0  0  0
    6.0924   -2.4549    0.1381 H   0  0  0  0  0  0  0  0  0  0  0  0
    3.7701   -2.7330    1.0212 H   0  0  0  0  0  0  0  0  0  0  0  0
    4.5120   -1.6984    2.3386 H   0  0  0  0  0  0  0  0  0  0  0  0
    2.4594   -0.7396    1.4283 H   0  0  0  0  0  0  0  0  0  0  0  0
    4.2121   -0.5071   -1.1033 H   0  0  0  0  0  0  0  0  0  0  0  0
    2.8640   -1.6845   -1.0018 H   0  0  0  0  0  0  0  0  0  0  0  0
    2.7349    1.1434   -1.6388 H   0  0  0  0  0  0  0  0  0  0  0  0
    1.0470   -1.7618   -0.1674 H   0  0  0  0  0  0  0  0  0  0  0  0
   -1.3370   -1.9643    0.2979 H   0  0  0  0  0  0  0  0  0  0  0  0
   -3.7825    1.8295   -0.0767 H   0  0  0  0  0  0  0  0  0  0  0  0
   -5.8597    1.7254    0.8763 H   0  0  0  0  0  0  0  0  0  0  0  0
   -5.9644    0.0133   -1.6557 H   0  0  0  0  0  0  0  0  0  0  0  0
   -6.3713    1.6939   -1.3578 H   0  0  0  0  0  0  0  0  0  0  0  0
   -8.3600    1.0426    0.0395 H   0  0  0  0  0  0  0  0  0  0  0  0
   -8.4339    0.5895   -1.6660 H   0  0  0  0  0  0  0  0  0  0  0  0
   -9.6799   -2.3391    0.2647 H   0  0  0  0  0  0  0  0  0  0  0  0
   -7.3884   -1.0086    2.7616 H   0  0  0  0  0  0  0  0  0  0  0  0
   -1.9950    2.0350   -1.0063 H   0  0  0  0  0  0  0  0  0  0  0  0
    0.4267    2.2268   -1.4618 H   0  0  0  0  0  0  0  0  0  0  0  0
    3.5340    1.3300    1.6852 H   0  0  0  0  0  0  0  0  0  0  0  0
  1  2  1  0
  2  3  2  0
  3  4  1  0
  4  5  2  0
  4  6  1  0
  6  7  2  0
  7  8  1  0
  7  9  1  0
  9 10  1  0
 10 11  1  0
 11 12  1  0
 12 13  1  0
 13 14  1  0
 14 15  2  0
 15 16  1  0
 16 17  2  0
 17 18  1  0
 18 19  2  0
 18 20  1  0
 20 21  1  0
 21 22  1  0
 22 23  1  0
 23 24  1  0
 24 25  2  0
 24 26  1  0
 21 27  1  0
 27 28  2  0
 27 29  1  0
 17 30  1  0
 30 31  2  0
 11 32  1  0
  8  2  1  0
 31 14  1  0
 32  6  1  0
  1 33  1  0
  1 34  1  0
  8 35  1  0
  9 36  1  0
 10 37  1  0
 10 38  1  0
 11 39  1  1
 12 40  1  0
 12 41  1  0
 13 42  1  0
 15 43  1  0
 16 44  1  0
 20 45  1  0
 21 46  1  1
 22 47  1  0
 22 48  1  0
 23 49  1  0
 23 50  1  0
 26 51  1  0
 29 52  1  0
 30 53  1  0
 31 54  1  0
 32 55  1  0
M  END
$$$$

     RDKit          3D

 55 57  0  0  0  0  0  0  0  0999 V2000
   -8.1995    3.1746   -0.5903 N   0  0  0  0  0  0  0  0  0  0  0  0
   -7.3362    2.0499   -0.6664 C   0  0  0  0  0  0  0  0  0  0  0  0
   -7.5796    1.0671   -1.5617 N   0  0  0  0  0  0  0  0  0  0  0  0
   -6.7438    0.0177   -1.6112 C   0  0  0  0  0  0  0  0  0  0  0  0
   -6.9048   -0.9402   -2.4197 O   0  0  0  0  0  0  0  0  0  0  0  0
   -5.6594   -0.0586   -0.7672 C   0  0  0  0  0  0  0  0  0  0  0  0
   -5.4357    0.9648    0.1413 C   0  0  0  0  0  0  0  0  0  0  0  0
   -6.2973    2.0228    0.1743 N   0  0  0  0  0  0  0  0  0  0  0  0
   -4.3278    0.8981    1.0143 N   0  0  0  0  0  0  0  0  0  0  0  0
   -3.3811   -0.1839    0.9238 C   0  0  0  0  0  0  0  0  0  0  0  0
   -4.0385   -1.4156    0.4455 C   0  0  2  0  0  0  0  0  0  0  0  0
   -3.2118   -2.6555    0.3549 C   0  0  0  0  0  0  0  0  0  0  0  0
   -2.0789   -2.6193   -0.4937 N   0  0  0  0  0  0  0  0  0  0  0  0
   -0.7991   -2.0548   -0.1862 C   0  0  0  0  0  0  0  0  0  0  0  0
   -0.4657   -1.7175    1.1132 C   0  0  0  0  0  0  0  0  0  0  0  0
    0.7515   -1.1907    1.4055 C   0  0  0  0  0  0  0  0  0  0  0  0
    1.6946   -0.9740    0.4292 C   0  0  0  0  0  0  0  0  0  0  0  0
    2.9816   -0.4350    0.8028 C   0  0  0  0  0  0  0  0  0  0  0  0
    3.2239   -0.2689    2.0393 O   0  0  0  0  0  0  0  0  0  0  0  0
    4.0072   -0.0745   -0.1019 N   0  0  0  0  0  0  0  0  0  0  0  0
    5.2976    0.4607    0.4024 C   0  0  1  0  0  0  0  0  0  0  0  0
    6.4099   -0.3837   -0.1294 C   0  0  0  0  0  0  0  0  0  0  0  0
    7.7853   -0.0157    0.2909 C   0  0  0  0  0  0  0  0  0  0  0  0
    8.1907    1.3226   -0.1251 C   0  0  0  0  0  0  0  0  0  0  0  0
    8.6851    2.1571    0.7180 O   0  0  0  0  0  0  0  0  0  0  0  0
    8.0443    1.7059   -1.4542 O   0  0  0  0  0  0  0  0  0  0  0  0
    5.2971    1.8698   -0.0330 C   0  0  0  0  0  0  0  0  0  0  0  0
    4.8159    2.1697   -1.1440 O   0  0  0  0  0  0  0  0  0  0  0  0
    5.8096    2.8898    0.7474 O   0  0  0  0  0  0  0  0  0  0  0  0
    1.3946   -1.2970   -0.8670 C   0  0  0  0  0  0  0  0  0  0  0  0
    0.1491   -1.8349   -1.1625 C   0  0  0  0  0  0  0  0  0  0  0  0
   -4.7482   -1.1470   -0.7882 N   0  0  0  0  0  0  0  0  0  0  0  0
   -7.8255    4.1239   -0.7266 H   0  0  0  0  0  0  0  0  0  0  0  0
   -9.2079    3.0504   -0.3983 H   0  0  0  0  0  0  0  0  0  0  0  0
   -6.1007    2.7853    0.8763 H   0  0  0  0  0  0  0  0  0  0  0  0
   -4.1960    1.6555    1.7416 H   0  0  0  0  0  0  0  0  0  0  0  0
   -2.8743   -0.3314    1.9146 H   0  0  0  0  0  0  0  0  0  0  0  0
   -2.6228    0.1464    0.1645 H   0  0  0  0  0  0  0  0  0  0  0  0
   -4.8457   -1.6601    1.2085 H   0  0  0  0  0  0  0  0  0  0  0  0
   -2.9485   -2.9359    1.4171 H   0  0  0  0  0  0  0  0  0  0  0  0
   -3.9143   -3.4789    0.0421 H   0  0  0  0  0  0  0  0  0  0  0  0
   -2.1603   -3.0471   -1.4625 H   0  0  0  0  0  0  0  0  0  0  0  0
   -1.1639   -1.8851    1.8878 H   0  0  0  0  0  0  0  0  0  0  0  0
    0.9550   -0.9423    2.4572 H   0  0  0  0  0  0  0  0  0  0  0  0
    3.8497   -0.1923   -1.1145 H   0  0  0  0  0  0  0  0  0  0  0  0
    5.3184    0.4575    1.4927 H   0  0  0  0  0  0  0  0  0  0  0  0
    6.3346   -0.3473   -1.2657 H   0  0  0  0  0  0  0  0  0  0  0  0
    6.2060   -1.4644    0.1634 H   0  0  0  0  0  0  0  0  0  0  0  0
    7.7896   -0.0179    1.4146 H   0  0  0  0  0  0  0  0  0  0  0  0
    8.5461   -0.7626   -0.0765 H   0  0  0  0  0  0  0  0  0  0  0  0
    8.6535    2.4225   -1.8395 H   0  0  0  0  0  0  0  0  0  0  0  0
    5.5255    3.8501    0.6572 H   0  0  0  0  0  0  0  0  0  0  0  0
    2.1075   -1.1480   -1.6909 H   0  0  0  0  0  0  0  0  0  0  0  0
   -0.1094   -2.1008   -2.1921 H   0  0  0  0  0  0  0  0  0  0  0  0
   -4.6473   -1.6812   -1.6748 H   0  0  0  0  0  0  0  0  0  0  0  0
  1  2  1  0
  2  3  2  0
  3  4  1  0
  4  5  2  0
  4  6  1  0
  6  7  2  0
  7  8  1  0
  7  9  1  0
  9 10  1  0
 10 11  1  0
 11 12  1  0
 12 13  1  0
 13 14  1  0
 14 15  2  0
 15 16  1  0
 16 17  2  0
 17 18  1  0
 18 19  2  0
 18 20  1  0
 20 21  1  0
 21 22  1  0
 22 23  1  0
 23 24  1  0
 24 25  2  0
 24 26  1  0
 21 27  1  0
 27 28  2  0
 27 29  1  0
 17 30  1  0
 30 31  2  0
 11 32  1  0
  8  2  1  0
 31 14  1  0
 32  6  1  0
  1 33  1  0
  1 34  1  0
  8 35  1  0
  9 36  1  0
 10 37  1  0
 10 38  1  0
 11 39  1  1
 12 40  1  0
 12 41  1  0
 13 42  1  0
 15 43  1  0
 16 44  1  0
 20 45  1  0
 21 46  1  1
 22 47  1  0
 22 48  1  0
 23 49  1  0
 23 50  1  0
 26 51  1  0
 29 52  1  0
 30 53  1  0
 31 54  1  0
 32 55  1  0
M  END
$$$$

     RDKit          3D

 55 57  0  0  0  0  0  0  0  0999 V2000
   -9.6293    2.4416    1.1293 N   0  0  0  0  0  0  0  0  0  0  0  0
   -8.3399    1.9705    0.7538 C   0  0  0  0  0  0  0  0  0  0  0  0
   -7.4716    2.7180    0.0389 N   0  0  0  0  0  0  0  0  0  0  0  0
   -6.2586    2.3289   -0.3381 C   0  0  0  0  0  0  0  0  0  0  0  0
   -5.4614    3.0307   -1.0014 O   0  0  0  0  0  0  0  0  0  0  0  0
   -5.8321    1.0564    0.0220 C   0  0  0  0  0  0  0  0  0  0  0  0
   -6.7057    0.2835    0.7506 C   0  0  0  0  0  0  0  0  0  0  0  0
   -7.9399    0.7381    1.1085 N   0  0  0  0  0  0  0  0  0  0  0  0
   -6.2761   -1.0277    1.1305 N   0  0  0  0  0  0  0  0  0  0  0  0
   -4.8407   -1.2619    1.1983 C   0  0  0  0  0  0  0  0  0  0  0  0
   -4.1838   -0.7796   -0.0936 C   0  0  2  0  0  0  0  0  0  0  0  0
   -2.6948   -0.8481    0.1067 C   0  0  0  0  0  0  0  0  0  0  0  0
   -2.0485   -0.4008   -1.1020 N   0  0  0  0  0  0  0  0  0  0  0  0
   -0.6185   -0.3597   -1.1159 C   0  0  0  0  0  0  0  0  0  0  0  0
    0.1276   -0.6744   -0.0042 C   0  0  0  0  0  0  0  0  0  0  0  0
    1.5102   -0.6469    0.0208 C   0  0  0  0  0  0  0  0  0  0  0  0
    2.2006   -0.2863   -1.1235 C   0  0  0  0  0  0  0  0  0  0  0  0
    3.6514   -0.2218   -1.1934 C   0  0  0  0  0  0  0  0  0  0  0  0
    4.1839   -0.0433   -2.3119 O   0  0  0  0  0  0  0  0  0  0  0  0
    4.5013   -0.3481   -0.0748 N   0  0  0  0  0  0  0  0  0  0  0  0
    5.9716   -0.2823   -0.1512 C   0  0  1  0  0  0  0  0  0  0  0  0
    6.4946    0.8633    0.6016 C   0  0  0  0  0  0  0  0  0  0  0  0
    7.9766    0.9934    0.5741 C   0  0  0  0  0  0  0  0  0  0  0  0
    8.6839   -0.0990    1.2548 C   0  0  0  0  0  0  0  0  0  0  0  0
    9.8058   -0.4762    0.8445 O   0  0  0  0  0  0  0  0  0  0  0  0
    8.1101   -0.7064    2.3526 O   0  0  0  0  0  0  0  0  0  0  0  0
    6.4495   -1.5932    0.2715 C   0  0  0  0  0  0  0  0  0  0  0  0
    5.7727   -2.2584    1.1333 O   0  0  0  0  0  0  0  0  0  0  0  0
    7.5949   -2.2399   -0.1693 O   0  0  0  0  0  0  0  0  0  0  0  0
    1.4526    0.0282   -2.2354 C   0  0  0  0  0  0  0  0  0  0  0  0
    0.0670    0.0012   -2.2619 C   0  0  0  0  0  0  0  0  0  0  0  0
   -4.5524    0.6006   -0.3586 N   0  0  0  0  0  0  0  0  0  0  0  0
   -9.8029    3.4406    1.3749 H   0  0  0  0  0  0  0  0  0  0  0  0
  -10.4327    1.7877    1.1656 H   0  0  0  0  0  0  0  0  0  0  0  0
   -8.5669    0.1047    1.6651 H   0  0  0  0  0  0  0  0  0  0  0  0
   -6.9828   -1.7536    1.3409 H   0  0  0  0  0  0  0  0  0  0  0  0
   -4.6939   -2.3548    1.2211 H   0  0  0  0  0  0  0  0  0  0  0  0
   -4.3622   -0.7583    2.0493 H   0  0  0  0  0  0  0  0  0  0  0  0
   -4.5377   -1.4415   -0.9011 H   0  0  0  0  0  0  0  0  0  0  0  0
   -2.3820   -0.2860    0.9982 H   0  0  0  0  0  0  0  0  0  0  0  0
   -2.3565   -1.9086    0.2998 H   0  0  0  0  0  0  0  0  0  0  0  0
   -2.6149   -0.1185   -1.9331 H   0  0  0  0  0  0  0  0  0  0  0  0
   -0.4125   -0.9557    0.8884 H   0  0  0  0  0  0  0  0  0  0  0  0
    2.0767   -0.8969    0.8998 H   0  0  0  0  0  0  0  0  0  0  0  0
    4.0625   -0.4945    0.8550 H   0  0  0  0  0  0  0  0  0  0  0  0
    6.2728   -0.1294   -1.2337 H   0  0  0  0  0  0  0  0  0  0  0  0
    6.1124    1.8009    0.0634 H   0  0  0  0  0  0  0  0  0  0  0  0
    6.1097    0.9090    1.6642 H   0  0  0  0  0  0  0  0  0  0  0  0
    8.3602    1.0998   -0.4929 H   0  0  0  0  0  0  0  0  0  0  0  0
    8.3101    1.9919    1.0179 H   0  0  0  0  0  0  0  0  0  0  0  0
    8.6384   -1.1934    3.0441 H   0  0  0  0  0  0  0  0  0  0  0  0
    7.9121   -3.1264    0.2545 H   0  0  0  0  0  0  0  0  0  0  0  0
    1.9699    0.3128   -3.1405 H   0  0  0  0  0  0  0  0  0  0  0  0
   -0.5218    0.2479   -3.1347 H   0  0  0  0  0  0  0  0  0  0  0  0
   -3.8594    1.2219   -0.8247 H   0  0  0  0  0  0  0  0  0  0  0  0
  1  2  1  0
  2  3  2  0
  3  4  1  0
  4  5  2  0
  4  6  1  0
  6  7  2  0
  7  8  1  0
  7  9  1  0
  9 10  1  0
 10 11  1  0
 11 12  1  0
 12 13  1  0
 13 14  1  0
 14 15  2  0
 15 16  1  0
 16 17  2  0
 17 18  1  0
 18 19  2  0
 18 20  1  0
 20 21  1  0
 21 22  1  0
 22 23  1  0
 23 24  1  0
 24 25  2  0
 24 26  1  0
 21 27  1  0
 27 28  2  0
 27 29  1  0
 17 30  1  0
 30 31  2  0
 11 32  1  0
  8  2  1  0
 31 14  1  0
 32  6  1  0
  1 33  1  0
  1 34  1  0
  8 35  1  0
  9 36  1  0
 10 37  1  0
 10 38  1  0
 11 39  1  6
 12 40  1  0
 12 41  1  0
 13 42  1  0
 15 43  1  0
 16 44  1  0
 20 45  1  0
 21 46  1  6
 22 47  1  0
 22 48  1  0
 23 49  1  0
 23 50  1  0
 26 51  1  0
 29 52  1  0
 30 53  1  0
 31 54  1  0
 32 55  1  0
M  END
$$$$

     RDKit          3D

 55 57  0  0  0  0  0  0  0  0999 V2000
    9.0026   -1.5021    0.7989 N   0  0  0  0  0  0  0  0  0  0  0  0
    7.6142   -1.2148    0.8364 C   0  0  0  0  0  0  0  0  0  0  0  0
    6.9279   -1.5252    1.9510 N   0  0  0  0  0  0  0  0  0  0  0  0
    5.5990   -1.2865    2.0799 C   0  0  0  0  0  0  0  0  0  0  0  0
    4.9891   -1.5892    3.1352 O   0  0  0  0  0  0  0  0  0  0  0  0
    4.9475   -0.7084    1.0290 C   0  0  0  0  0  0  0  0  0  0  0  0
    5.6223   -0.3845   -0.1129 C   0  0  0  0  0  0  0  0  0  0  0  0
    6.9445   -0.6478   -0.1770 N   0  0  0  0  0  0  0  0  0  0  0  0
    4.9095    0.2220   -1.2119 N   0  0  0  0  0  0  0  0  0  0  0  0
    3.5049   -0.1752   -1.3823 C   0  0  0  0  0  0  0  0  0  0  0  0
    2.8341    0.1012   -0.0274 C   0  0  2  0  0  0  0  0  0  0  0  0
    2.7555    1.6474    0.0268 C   0  0  0  0  0  0  0  0  0  0  0  0
    1.9380    1.9594   -1.1623 N   0  0  0  0  0  0  0  0  0  0  0  0
    0.5898    1.5007   -1.1356 C   0  0  0  0  0  0  0  0  0  0  0  0
   -0.2912    2.0206   -0.2019 C   0  0  0  0  0  0  0  0  0  0  0  0
   -1.6110    1.5846   -0.1073 C   0  0  0  0  0  0  0  0  0  0  0  0
   -2.0955    0.6073   -0.9500 C   0  0  0  0  0  0  0  0  0  0  0  0
   -3.4672    0.1195   -0.8832 C   0  0  0  0  0  0  0  0  0  0  0  0
   -3.7497   -0.9359   -1.5170 O   0  0  0  0  0  0  0  0  0  0  0  0
   -4.5130    0.7480   -0.1544 N   0  0  0  0  0  0  0  0  0  0  0  0
   -5.8506    0.2492   -0.0965 C   0  0  1  0  0  0  0  0  0  0  0  0
   -6.3651    0.0328    1.2863 C   0  0  0  0  0  0  0  0  0  0  0  0
   -5.6263   -0.9202    2.1361 C   0  0  0  0  0  0  0  0  0  0  0  0
   -5.5443   -2.3046    1.6611 C   0  0  0  0  0  0  0  0  0  0  0  0
   -6.1233   -2.6278    0.5916 O   0  0  0  0  0  0  0  0  0  0  0  0
   -4.8618   -3.3112    2.3124 O   0  0  0  0  0  0  0  0  0  0  0  0
   -6.7617    1.1630   -0.8674 C   0  0  0  0  0  0  0  0  0  0  0  0
   -6.2617    2.1648   -1.4113 O   0  0  0  0  0  0  0  0  0  0  0  0
   -8.1178    0.9328   -0.9942 O   0  0  0  0  0  0  0  0  0  0  0  0
   -1.2038    0.0874   -1.8891 C   0  0  0  0  0  0  0  0  0  0  0  0
    0.1018    0.5234   -1.9778 C   0  0  0  0  0  0  0  0  0  0  0  0
    3.5631   -0.4263    1.0799 N   0  0  0  0  0  0  0  0  0  0  0  0
    9.6254   -1.1570    1.5719 H   0  0  0  0  0  0  0  0  0  0  0  0
    9.4305   -2.0548    0.0116 H   0  0  0  0  0  0  0  0  0  0  0  0
    7.4332   -0.3887   -1.0559 H   0  0  0  0  0  0  0  0  0  0  0  0
    5.4138    0.8825   -1.8010 H   0  0  0  0  0  0  0  0  0  0  0  0
    3.0531    0.5358   -2.0932 H   0  0  0  0  0  0  0  0  0  0  0  0
    3.4145   -1.2386   -1.6684 H   0  0  0  0  0  0  0  0  0  0  0  0
    1.8440   -0.3491   -0.0544 H   0  0  0  0  0  0  0  0  0  0  0  0
    2.2461    1.9987    0.9379 H   0  0  0  0  0  0  0  0  0  0  0  0
    3.7442    2.0997   -0.0609 H   0  0  0  0  0  0  0  0  0  0  0  0
    2.3985    2.4873   -1.9209 H   0  0  0  0  0  0  0  0  0  0  0  0
    0.0933    2.8009    0.4657 H   0  0  0  0  0  0  0  0  0  0  0  0
   -2.2642    2.0239    0.6384 H   0  0  0  0  0  0  0  0  0  0  0  0
   -4.2609    1.6210    0.3550 H   0  0  0  0  0  0  0  0  0  0  0  0
   -5.9515   -0.7245   -0.6507 H   0  0  0  0  0  0  0  0  0  0  0  0
   -6.3751    1.0266    1.8119 H   0  0  0  0  0  0  0  0  0  0  0  0
   -7.4590   -0.2730    1.2793 H   0  0  0  0  0  0  0  0  0  0  0  0
   -4.5947   -0.5630    2.3456 H   0  0  0  0  0  0  0  0  0  0  0  0
   -6.1653   -0.9520    3.1309 H   0  0  0  0  0  0  0  0  0  0  0  0
   -4.5758   -4.1633    1.8398 H   0  0  0  0  0  0  0  0  0  0  0  0
   -8.7254    1.5081   -1.5766 H   0  0  0  0  0  0  0  0  0  0  0  0
   -1.5858   -0.6878   -2.5555 H   0  0  0  0  0  0  0  0  0  0  0  0
    0.7793    0.0964   -2.7243 H   0  0  0  0  0  0  0  0  0  0  0  0
    3.0820   -0.6336    1.9902 H   0  0  0  0  0  0  0  0  0  0  0  0
  1  2  1  0
  2  3  2  0
  3  4  1  0
  4  5  2  0
  4  6  1  0
  6  7  2  0
  7  8  1  0
  7  9  1  0
  9 10  1  0
 10 11  1  0
 11 12  1  0
 12 13  1  0
 13 14  1  0
 14 15  2  0
 15 16  1  0
 16 17  2  0
 17 18  1  0
 18 19  2  0
 18 20  1  0
 20 21  1  0
 21 22  1  0
 22 23  1  0
 23 24  1  0
 24 25  2  0
 24 26  1  0
 21 27  1  0
 27 28  2  0
 27 29  1  0
 17 30  1  0
 30 31  2  0
 11 32  1  0
  8  2  1  0
 31 14  1  0
 32  6  1  0
  1 33  1  0
  1 34  1  0
  8 35  1  0
  9 36  1  0
 10 37  1  0
 10 38  1  0
 11 39  1  6
 12 40  1  0
 12 41  1  0
 13 42  1  0
 15 43  1  0
 16 44  1  0
 20 45  1  0
 21 46  1  6
 22 47  1  0
 22 48  1  0
 23 49  1  0
 23 50  1  0
 26 51  1  0
 29 52  1  0
 30 53  1  0
 31 54  1  0
 32 55  1  0
M  END
$$$$

     RDKit          3D

 55 57  0  0  0  0  0  0  0  0999 V2000
   -9.8050   -1.1961   -0.6989 N   0  0  0  0  0  0  0  0  0  0  0  0
   -8.4693   -0.9530   -0.2593 C   0  0  0  0  0  0  0  0  0  0  0  0
   -7.8439   -1.7802    0.5781 N   0  0  0  0  0  0  0  0  0  0  0  0
   -6.5855   -1.5703    1.0199 C   0  0  0  0  0  0  0  0  0  0  0  0
   -5.9945   -2.3477    1.8070 O   0  0  0  0  0  0  0  0  0  0  0  0
   -5.9063   -0.4447    0.5873 C   0  0  0  0  0  0  0  0  0  0  0  0
   -6.5383    0.4082   -0.2730 C   0  0  0  0  0  0  0  0  0  0  0  0
   -7.8239    0.1399   -0.6877 N   0  0  0  0  0  0  0  0  0  0  0  0
   -5.8755    1.5660   -0.7475 N   0  0  0  0  0  0  0  0  0  0  0  0
   -4.5177    1.8355   -0.3731 C   0  0  0  0  0  0  0  0  0  0  0  0
   -4.1593    1.2122    0.9819 C   0  0  2  0  0  0  0  0  0  0  0  0
   -2.6586    1.2766    1.1164 C   0  0  0  0  0  0  0  0  0  0  0  0
   -1.9504    0.5516    0.0842 N   0  0  0  0  0  0  0  0  0  0  0  0
   -0.5256    0.5718    0.0517 C   0  0  0  0  0  0  0  0  0  0  0  0
    0.2161    1.3489    0.9146 C   0  0  0  0  0  0  0  0  0  0  0  0
    1.5968    1.3626    0.8955 C   0  0  0  0  0  0  0  0  0  0  0  0
    2.3097    0.5844   -0.0103 C   0  0  0  0  0  0  0  0  0  0  0  0
    3.7572    0.5895   -0.0443 C   0  0  0  0  0  0  0  0  0  0  0  0
    4.4343    1.5123    0.4631 O   0  0  0  0  0  0  0  0  0  0  0  0
    4.4306   -0.4798   -0.6684 N   0  0  0  0  0  0  0  0  0  0  0  0
    5.8928   -0.4600   -0.6937 C   0  0  1  0  0  0  0  0  0  0  0  0
    6.3292   -1.6557    0.1720 C   0  0  0  0  0  0  0  0  0  0  0  0
    7.8421   -1.7165    0.2188 C   0  0  0  0  0  0  0  0  0  0  0  0
    8.3008   -0.4430    0.7994 C   0  0  0  0  0  0  0  0  0  0  0  0
    7.8076   -0.0646    1.8947 O   0  0  0  0  0  0  0  0  0  0  0  0
    9.2588    0.3989    0.2174 O   0  0  0  0  0  0  0  0  0  0  0  0
    6.3223   -0.6059   -2.0953 C   0  0  0  0  0  0  0  0  0  0  0  0
    5.5006   -0.7323   -3.0304 O   0  0  0  0  0  0  0  0  0  0  0  0
    7.6676   -0.6064   -2.4002 O   0  0  0  0  0  0  0  0  0  0  0  0
    1.5774   -0.1960   -0.8784 C   0  0  0  0  0  0  0  0  0  0  0  0
    0.1761   -0.2031   -0.8490 C   0  0  0  0  0  0  0  0  0  0  0  0
   -4.5844   -0.1567    1.0236 N   0  0  0  0  0  0  0  0  0  0  0  0
  -10.1842   -2.1501   -0.8614 H   0  0  0  0  0  0  0  0  0  0  0  0
  -10.4749   -0.4126   -0.8805 H   0  0  0  0  0  0  0  0  0  0  0  0
   -8.2961    0.8026   -1.3503 H   0  0  0  0  0  0  0  0  0  0  0  0
   -6.4304    2.2097   -1.3793 H   0  0  0  0  0  0  0  0  0  0  0  0
   -3.8092    1.4345   -1.1229 H   0  0  0  0  0  0  0  0  0  0  0  0
   -4.3060    2.9204   -0.2593 H   0  0  0  0  0  0  0  0  0  0  0  0
   -4.6737    1.7989    1.7575 H   0  0  0  0  0  0  0  0  0  0  0  0
   -2.2995    2.3248    1.2216 H   0  0  0  0  0  0  0  0  0  0  0  0
   -2.4215    0.7788    2.1017 H   0  0  0  0  0  0  0  0  0  0  0  0
   -2.4562    0.0105   -0.6415 H   0  0  0  0  0  0  0  0  0  0  0  0
   -0.3391    1.9751    1.6305 H   0  0  0  0  0  0  0  0  0  0  0  0
    2.1647    1.9806    1.5848 H   0  0  0  0  0  0  0  0  0  0  0  0
    3.9655   -1.2883   -1.1156 H   0  0  0  0  0  0  0  0  0  0  0  0
    6.2773    0.4853   -0.2293 H   0  0  0  0  0  0  0  0  0  0  0  0
    5.9235   -1.4648    1.1591 H   0  0  0  0  0  0  0  0  0  0  0  0
    5.8777   -2.5424   -0.2762 H   0  0  0  0  0  0  0  0  0  0  0  0
    8.3112   -2.0127   -0.7094 H   0  0  0  0  0  0  0  0  0  0  0  0
    8.0724   -2.5081    0.9928 H   0  0  0  0  0  0  0  0  0  0  0  0
    9.0440    1.4056    0.0913 H   0  0  0  0  0  0  0  0  0  0  0  0
    8.1012   -0.9580   -3.2239 H   0  0  0  0  0  0  0  0  0  0  0  0
    2.0915   -0.8076   -1.6021 H   0  0  0  0  0  0  0  0  0  0  0  0
   -0.3457   -0.8173   -1.5364 H   0  0  0  0  0  0  0  0  0  0  0  0
   -3.9741   -0.9117    1.3497 H   0  0  0  0  0  0  0  0  0  0  0  0
  1  2  1  0
  2  3  2  0
  3  4  1  0
  4  5  2  0
  4  6  1  0
  6  7  2  0
  7  8  1  0
  7  9  1  0
  9 10  1  0
 10 11  1  0
 11 12  1  0
 12 13  1  0
 13 14  1  0
 14 15  2  0
 15 16  1  0
 16 17  2  0
 17 18  1  0
 18 19  2  0
 18 20  1  0
 20 21  1  0
 21 22  1  0
 22 23  1  0
 23 24  1  0
 24 25  2  0
 24 26  1  0
 21 27  1  0
 27 28  2  0
 27 29  1  0
 17 30  1  0
 30 31  2  0
 11 32  1  0
  8  2  1  0
 31 14  1  0
 32  6  1  0
  1 33  1  0
  1 34  1  0
  8 35  1  0
  9 36  1  0
 10 37  1  0
 10 38  1  0
 11 39  1  1
 12 40  1  0
 12 41  1  0
 13 42  1  0
 15 43  1  0
 16 44  1  0
 20 45  1  0
 21 46  1  1
 22 47  1  0
 22 48  1  0
 23 49  1  0
 23 50  1  0
 26 51  1  0
 29 52  1  0
 30 53  1  0
 31 54  1  0
 32 55  1  0
M  END
$$$$

     RDKit          3D

 55 57  0  0  0  0  0  0  0  0999 V2000
    6.2793    4.2622    0.6681 N   0  0  0  0  0  0  0  0  0  0  0  0
    5.4401    3.0947    0.6957 C   0  0  0  0  0  0  0  0  0  0  0  0
    4.3181    3.0351    1.4329 N   0  0  0  0  0  0  0  0  0  0  0  0
    3.6007    1.8814    1.3855 C   0  0  0  0  0  0  0  0  0  0  0  0
    2.5358    1.7744    2.0613 O   0  0  0  0  0  0  0  0  0  0  0  0
    4.0028    0.8137    0.6149 C   0  0  0  0  0  0  0  0  0  0  0  0
    5.1560    0.9056   -0.1286 C   0  0  0  0  0  0  0  0  0  0  0  0
    5.8597    2.0684   -0.0675 N   0  0  0  0  0  0  0  0  0  0  0  0
    5.5942   -0.1915   -0.9415 N   0  0  0  0  0  0  0  0  0  0  0  0
    4.5826   -1.2038   -1.2370 C   0  0  0  0  0  0  0  0  0  0  0  0
    3.9308   -1.5497    0.0939 C   0  0  2  0  0  0  0  0  0  0  0  0
    3.2944   -2.8787    0.0982 C   0  0  0  0  0  0  0  0  0  0  0  0
    2.2690   -3.1606   -0.8302 N   0  0  0  0  0  0  0  0  0  0  0  0
    0.9336   -2.7595   -0.7756 C   0  0  0  0  0  0  0  0  0  0  0  0
    0.3338   -2.2535    0.3529 C   0  0  0  0  0  0  0  0  0  0  0  0
   -1.0101   -1.8598    0.3641 C   0  0  0  0  0  0  0  0  0  0  0  0
   -1.7714   -1.9725   -0.7672 C   0  0  0  0  0  0  0  0  0  0  0  0
   -3.1823   -1.5421   -0.7238 C   0  0  0  0  0  0  0  0  0  0  0  0
   -4.0935   -2.2829   -1.1297 O   0  0  0  0  0  0  0  0  0  0  0  0
   -3.5106   -0.2762   -0.2184 N   0  0  0  0  0  0  0  0  0  0  0  0
   -4.9117    0.2192   -0.1406 C   0  0  1  0  0  0  0  0  0  0  0  0
   -5.2102    0.5576    1.2637 C   0  0  0  0  0  0  0  0  0  0  0  0
   -6.5319    1.0927    1.6147 C   0  0  0  0  0  0  0  0  0  0  0  0
   -6.8510    2.4091    1.0470 C   0  0  0  0  0  0  0  0  0  0  0  0
   -8.0206    2.7742    0.7177 O   0  0  0  0  0  0  0  0  0  0  0  0
   -5.8229    3.3395    0.8504 O   0  0  0  0  0  0  0  0  0  0  0  0
   -5.1513    1.2040   -1.1886 C   0  0  0  0  0  0  0  0  0  0  0  0
   -4.1337    1.6400   -1.8579 O   0  0  0  0  0  0  0  0  0  0  0  0
   -6.3549    1.7439   -1.5779 O   0  0  0  0  0  0  0  0  0  0  0  0
   -1.2054   -2.4735   -1.9100 C   0  0  0  0  0  0  0  0  0  0  0  0
    0.1279   -2.8555   -1.8947 C   0  0  0  0  0  0  0  0  0  0  0  0
    3.2312   -0.4198    0.5729 N   0  0  0  0  0  0  0  0  0  0  0  0
    7.1688    4.2422    1.2154 H   0  0  0  0  0  0  0  0  0  0  0  0
    5.9390    5.0631    0.0948 H   0  0  0  0  0  0  0  0  0  0  0  0
    6.7410    2.1330   -0.6386 H   0  0  0  0  0  0  0  0  0  0  0  0
    6.5757   -0.2309   -1.2809 H   0  0  0  0  0  0  0  0  0  0  0  0
    4.9593   -2.0612   -1.7894 H   0  0  0  0  0  0  0  0  0  0  0  0
    3.8216   -0.6897   -1.8780 H   0  0  0  0  0  0  0  0  0  0  0  0
    4.8500   -1.6442    0.7945 H   0  0  0  0  0  0  0  0  0  0  0  0
    2.9667   -3.0958    1.1721 H   0  0  0  0  0  0  0  0  0  0  0  0
    4.1341   -3.6405   -0.0253 H   0  0  0  0  0  0  0  0  0  0  0  0
    2.5450   -3.7574   -1.6824 H   0  0  0  0  0  0  0  0  0  0  0  0
    0.9003   -2.1597    1.2757 H   0  0  0  0  0  0  0  0  0  0  0  0
   -1.4569   -1.4614    1.2733 H   0  0  0  0  0  0  0  0  0  0  0  0
   -2.7790    0.3658    0.1225 H   0  0  0  0  0  0  0  0  0  0  0  0
   -5.5308   -0.6885   -0.4265 H   0  0  0  0  0  0  0  0  0  0  0  0
   -4.3912    1.2744    1.6289 H   0  0  0  0  0  0  0  0  0  0  0  0
   -4.9839   -0.3718    1.8890 H   0  0  0  0  0  0  0  0  0  0  0  0
   -6.5487    1.2502    2.7474 H   0  0  0  0  0  0  0  0  0  0  0  0
   -7.3575    0.3536    1.4656 H   0  0  0  0  0  0  0  0  0  0  0  0
   -5.9039    3.9988    0.0650 H   0  0  0  0  0  0  0  0  0  0  0  0
   -6.4767    2.1242   -2.5304 H   0  0  0  0  0  0  0  0  0  0  0  0
   -1.7735   -2.5784   -2.8238 H   0  0  0  0  0  0  0  0  0  0  0  0
    0.6000   -3.2568   -2.7973 H   0  0  0  0  0  0  0  0  0  0  0  0
    2.2722   -0.3051    0.9030 H   0  0  0  0  0  0  0  0  0  0  0  0
  1  2  1  0
  2  3  2  0
  3  4  1  0
  4  5  2  0
  4  6  1  0
  6  7  2  0
  7  8  1  0
  7  9  1  0
  9 10  1  0
 10 11  1  0
 11 12  1  0
 12 13  1  0
 13 14  1  0
 14 15  2  0
 15 16  1  0
 16 17  2  0
 17 18  1  0
 18 19  2  0
 18 20  1  0
 20 21  1  0
 21 22  1  0
 22 23  1  0
 23 24  1  0
 24 25  2  0
 24 26  1  0
 21 27  1  0
 27 28  2  0
 27 29  1  0
 17 30  1  0
 30 31  2  0
 11 32  1  0
  8  2  1  0
 31 14  1  0
 32  6  1  0
  1 33  1  0
  1 34  1  0
  8 35  1  0
  9 36  1  0
 10 37  1  0
 10 38  1  0
 11 39  1  1
 12 40  1  0
 12 41  1  0
 13 42  1  0
 15 43  1  0
 16 44  1  0
 20 45  1  0
 21 46  1  6
 22 47  1  0
 22 48  1  0
 23 49  1  0
 23 50  1  0
 26 51  1  0
 29 52  1  0
 30 53  1  0
 31 54  1  0
 32 55  1  0
M  END
$$$$

     RDKit          3D

 55 57  0  0  0  0  0  0  0  0999 V2000
    8.8710   -1.3924    1.3037 N   0  0  0  0  0  0  0  0  0  0  0  0
    7.5700   -1.2553    0.7715 C   0  0  0  0  0  0  0  0  0  0  0  0
    6.6837   -2.2599    0.9697 N   0  0  0  0  0  0  0  0  0  0  0  0
    5.4424   -2.1456    0.4702 C   0  0  0  0  0  0  0  0  0  0  0  0
    4.5773   -3.0390    0.6187 O   0  0  0  0  0  0  0  0  0  0  0  0
    5.1078   -1.0032   -0.2320 C   0  0  0  0  0  0  0  0  0  0  0  0
    6.0262    0.0239   -0.4300 C   0  0  0  0  0  0  0  0  0  0  0  0
    7.2647   -0.1404    0.0938 N   0  0  0  0  0  0  0  0  0  0  0  0
    5.6661    1.1909   -1.1549 N   0  0  0  0  0  0  0  0  0  0  0  0
    4.4060    1.2949   -1.8553 C   0  0  0  0  0  0  0  0  0  0  0  0
    3.3622    0.5382   -1.0655 C   0  0  2  0  0  0  0  0  0  0  0  0
    3.2693    1.2378    0.3000 C   0  0  0  0  0  0  0  0  0  0  0  0
    2.2973    0.5595    1.0863 N   0  0  0  0  0  0  0  0  0  0  0  0
    0.9129    0.6113    0.6893 C   0  0  0  0  0  0  0  0  0  0  0  0
    0.0088   -0.2744    1.2398 C   0  0  0  0  0  0  0  0  0  0  0  0
   -1.3482   -0.2528    0.8949 C   0  0  0  0  0  0  0  0  0  0  0  0
   -1.8201    0.6660   -0.0149 C   0  0  0  0  0  0  0  0  0  0  0  0
   -3.2401    0.6905   -0.4019 C   0  0  0  0  0  0  0  0  0  0  0  0
   -3.7552    1.7619   -0.7906 O   0  0  0  0  0  0  0  0  0  0  0  0
   -3.9583   -0.5189   -0.3142 N   0  0  0  0  0  0  0  0  0  0  0  0
   -5.3406   -0.6608   -0.6679 C   0  0  1  0  0  0  0  0  0  0  0  0
   -6.1749   -0.5406    0.5486 C   0  0  0  0  0  0  0  0  0  0  0  0
   -7.6462   -0.6638    0.3231 C   0  0  0  0  0  0  0  0  0  0  0  0
   -8.3194   -0.5727    1.6561 C   0  0  0  0  0  0  0  0  0  0  0  0
   -8.3661   -1.5614    2.3936 O   0  0  0  0  0  0  0  0  0  0  0  0
   -8.8773    0.6237    2.0344 O   0  0  0  0  0  0  0  0  0  0  0  0
   -5.7742    0.0476   -1.8774 C   0  0  0  0  0  0  0  0  0  0  0  0
   -5.0239    0.7330   -2.6071 O   0  0  0  0  0  0  0  0  0  0  0  0
   -7.1084    0.0093   -2.3294 O   0  0  0  0  0  0  0  0  0  0  0  0
   -0.9139    1.5483   -0.5610 C   0  0  0  0  0  0  0  0  0  0  0  0
    0.4303    1.5248   -0.2174 C   0  0  0  0  0  0  0  0  0  0  0  0
    3.8167   -0.8103   -0.7919 N   0  0  0  0  0  0  0  0  0  0  0  0
    9.0863   -1.3497    2.3414 H   0  0  0  0  0  0  0  0  0  0  0  0
    9.6522   -1.5451    0.6093 H   0  0  0  0  0  0  0  0  0  0  0  0
    7.9992    0.6040   -0.0252 H   0  0  0  0  0  0  0  0  0  0  0  0
    6.3409    1.9803   -1.1709 H   0  0  0  0  0  0  0  0  0  0  0  0
    4.4546    0.9483   -2.9085 H   0  0  0  0  0  0  0  0  0  0  0  0
    4.0437    2.3635   -1.8851 H   0  0  0  0  0  0  0  0  0  0  0  0
    2.3866    0.5201   -1.5842 H   0  0  0  0  0  0  0  0  0  0  0  0
    4.2495    1.1997    0.8113 H   0  0  0  0  0  0  0  0  0  0  0  0
    3.0327    2.3187    0.1572 H   0  0  0  0  0  0  0  0  0  0  0  0
    2.5928    0.0355    1.9360 H   0  0  0  0  0  0  0  0  0  0  0  0
    0.3611   -0.9998    1.9537 H   0  0  0  0  0  0  0  0  0  0  0  0
   -2.0138   -0.9630    1.3570 H   0  0  0  0  0  0  0  0  0  0  0  0
   -3.4511   -1.4021    0.0394 H   0  0  0  0  0  0  0  0  0  0  0  0
   -5.4385   -1.7876   -0.9720 H   0  0  0  0  0  0  0  0  0  0  0  0
   -5.9157   -1.3681    1.2839 H   0  0  0  0  0  0  0  0  0  0  0  0
   -5.9201    0.3858    1.1420 H   0  0  0  0  0  0  0  0  0  0  0  0
   -7.9761    0.1984   -0.3034 H   0  0  0  0  0  0  0  0  0  0  0  0
   -7.8521   -1.6276   -0.1762 H   0  0  0  0  0  0  0  0  0  0  0  0
   -9.1965    0.8049    2.9966 H   0  0  0  0  0  0  0  0  0  0  0  0
   -7.4888    0.8476   -2.7505 H   0  0  0  0  0  0  0  0  0  0  0  0
   -1.3091    2.2626   -1.2740 H   0  0  0  0  0  0  0  0  0  0  0  0
    1.0969    2.2442   -0.6655 H   0  0  0  0  0  0  0  0  0  0  0  0
    3.2196   -1.6410   -0.9947 H   0  0  0  0  0  0  0  0  0  0  0  0
  1  2  1  0
  2  3  2  0
  3  4  1  0
  4  5  2  0
  4  6  1  0
  6  7  2  0
  7  8  1  0
  7  9  1  0
  9 10  1  0
 10 11  1  0
 11 12  1  0
 12 13  1  0
 13 14  1  0
 14 15  2  0
 15 16  1  0
 16 17  2  0
 17 18  1  0
 18 19  2  0
 18 20  1  0
 20 21  1  0
 21 22  1  0
 22 23  1  0
 23 24  1  0
 24 25  2  0
 24 26  1  0
 21 27  1  0
 27 28  2  0
 27 29  1  0
 17 30  1  0
 30 31  2  0
 11 32  1  0
  8  2  1  0
 31 14  1  0
 32  6  1  0
  1 33  1  0
  1 34  1  0
  8 35  1  0
  9 36  1  0
 10 37  1  0
 10 38  1  0
 11 39  1  6
 12 40  1  0
 12 41  1  0
 13 42  1  0
 15 43  1  0
 16 44  1  0
 20 45  1  0
 21 46  1  6
 22 47  1  0
 22 48  1  0
 23 49  1  0
 23 50  1  0
 26 51  1  0
 29 52  1  0
 30 53  1  0
 31 54  1  0
 32 55  1  0
M  END
$$$$

     RDKit          3D

 55 57  0  0  0  0  0  0  0  0999 V2000
   -8.1405   -3.3520   -0.6809 N   0  0  0  0  0  0  0  0  0  0  0  0
   -7.1824   -2.4636   -0.1363 C   0  0  0  0  0  0  0  0  0  0  0  0
   -6.4186   -2.7850    0.9424 N   0  0  0  0  0  0  0  0  0  0  0  0
   -5.5125   -1.9403    1.4548 C   0  0  0  0  0  0  0  0  0  0  0  0
   -4.8005   -2.2310    2.4547 O   0  0  0  0  0  0  0  0  0  0  0  0
   -5.3585   -0.7003    0.8556 C   0  0  0  0  0  0  0  0  0  0  0  0
   -6.1205   -0.3576   -0.2345 C   0  0  0  0  0  0  0  0  0  0  0  0
   -7.0104   -1.2530   -0.6964 N   0  0  0  0  0  0  0  0  0  0  0  0
   -5.9324    0.9180   -0.8167 N   0  0  0  0  0  0  0  0  0  0  0  0
   -4.7159    1.6844   -0.6328 C   0  0  0  0  0  0  0  0  0  0  0  0
   -4.1319    1.5069    0.7263 C   0  0  2  0  0  0  0  0  0  0  0  0
   -2.6406    1.7088    0.7630 C   0  0  0  0  0  0  0  0  0  0  0  0
   -1.9324    0.7913   -0.0869 N   0  0  0  0  0  0  0  0  0  0  0  0
   -0.5131    0.8793   -0.1411 C   0  0  0  0  0  0  0  0  0  0  0  0
    0.2531    0.0455   -0.9238 C   0  0  0  0  0  0  0  0  0  0  0  0
    1.6504    0.1477   -0.9638 C   0  0  0  0  0  0  0  0  0  0  0  0
    2.3012    1.0912   -0.2165 C   0  0  0  0  0  0  0  0  0  0  0  0
    3.7340    1.2507   -0.2106 C   0  0  0  0  0  0  0  0  0  0  0  0
    4.2724    2.1618    0.5091 O   0  0  0  0  0  0  0  0  0  0  0  0
    4.5552    0.4076   -0.9950 N   0  0  0  0  0  0  0  0  0  0  0  0
    6.0029    0.6331   -0.9349 C   0  0  1  0  0  0  0  0  0  0  0  0
    6.5813   -0.6339   -0.3223 C   0  0  0  0  0  0  0  0  0  0  0  0
    5.9784   -0.8172    1.0547 C   0  0  0  0  0  0  0  0  0  0  0  0
    6.5422   -2.0504    1.6495 C   0  0  0  0  0  0  0  0  0  0  0  0
    7.3792   -2.7872    1.0661 O   0  0  0  0  0  0  0  0  0  0  0  0
    6.1305   -2.4193    2.9164 O   0  0  0  0  0  0  0  0  0  0  0  0
    6.5003    0.8673   -2.2931 C   0  0  0  0  0  0  0  0  0  0  0  0
    5.7175    0.8522   -3.2646 O   0  0  0  0  0  0  0  0  0  0  0  0
    7.8400    1.1070   -2.5106 O   0  0  0  0  0  0  0  0  0  0  0  0
    1.5393    1.9302    0.5703 C   0  0  0  0  0  0  0  0  0  0  0  0
    0.1859    1.8265    0.6050 C   0  0  0  0  0  0  0  0  0  0  0  0
   -4.4275    0.2388    1.3375 N   0  0  0  0  0  0  0  0  0  0  0  0
   -8.2098   -3.5440   -1.7080 H   0  0  0  0  0  0  0  0  0  0  0  0
   -8.7868   -3.8154    0.0032 H   0  0  0  0  0  0  0  0  0  0  0  0
   -7.5784   -0.9531   -1.5366 H   0  0  0  0  0  0  0  0  0  0  0  0
   -6.7328    1.2878   -1.3991 H   0  0  0  0  0  0  0  0  0  0  0  0
   -4.0230    1.3888   -1.4492 H   0  0  0  0  0  0  0  0  0  0  0  0
   -4.9922    2.7539   -0.8157 H   0  0  0  0  0  0  0  0  0  0  0  0
   -4.5692    2.3005    1.3973 H   0  0  0  0  0  0  0  0  0  0  0  0
   -2.3408    2.7364    0.4882 H   0  0  0  0  0  0  0  0  0  0  0  0
   -2.3017    1.5109    1.8089 H   0  0  0  0  0  0  0  0  0  0  0  0
   -2.3835    0.0613   -0.6707 H   0  0  0  0  0  0  0  0  0  0  0  0
   -0.2132   -0.7181   -1.5341 H   0  0  0  0  0  0  0  0  0  0  0  0
    2.2113   -0.5385   -1.6018 H   0  0  0  0  0  0  0  0  0  0  0  0
    4.1851   -0.3697   -1.6167 H   0  0  0  0  0  0  0  0  0  0  0  0
    6.2187    1.4641   -0.2538 H   0  0  0  0  0  0  0  0  0  0  0  0
    7.6719   -0.6385   -0.2981 H   0  0  0  0  0  0  0  0  0  0  0  0
    6.2309   -1.4860   -0.9568 H   0  0  0  0  0  0  0  0  0  0  0  0
    4.8899   -0.8973    1.0051 H   0  0  0  0  0  0  0  0  0  0  0  0
    6.2260    0.0604    1.6940 H   0  0  0  0  0  0  0  0  0  0  0  0
    6.2415   -3.3657    3.2187 H   0  0  0  0  0  0  0  0  0  0  0  0
    8.2371    1.3410   -3.4065 H   0  0  0  0  0  0  0  0  0  0  0  0
    2.0243    2.6851    1.1715 H   0  0  0  0  0  0  0  0  0  0  0  0
   -0.4232    2.4815    1.2205 H   0  0  0  0  0  0  0  0  0  0  0  0
   -3.9081   -0.0027    2.2092 H   0  0  0  0  0  0  0  0  0  0  0  0
  1  2  1  0
  2  3  2  0
  3  4  1  0
  4  5  2  0
  4  6  1  0
  6  7  2  0
  7  8  1  0
  7  9  1  0
  9 10  1  0
 10 11  1  0
 11 12  1  0
 12 13  1  0
 13 14  1  0
 14 15  2  0
 15 16  1  0
 16 17  2  0
 17 18  1  0
 18 19  2  0
 18 20  1  0
 20 21  1  0
 21 22  1  0
 22 23  1  0
 23 24  1  0
 24 25  2  0
 24 26  1  0
 21 27  1  0
 27 28  2  0
 27 29  1  0
 17 30  1  0
 30 31  2  0
 11 32  1  0
  8  2  1  0
 31 14  1  0
 32  6  1  0
  1 33  1  0
  1 34  1  0
  8 35  1  0
  9 36  1  0
 10 37  1  0
 10 38  1  0
 11 39  1  1
 12 40  1  0
 12 41  1  0
 13 42  1  0
 15 43  1  0
 16 44  1  0
 20 45  1  0
 21 46  1  1
 22 47  1  0
 22 48  1  0
 23 49  1  0
 23 50  1  0
 26 51  1  0
 29 52  1  0
 30 53  1  0
 31 54  1  0
 32 55  1  0
M  END
$$$$

     RDKit          3D

 55 57  0  0  0  0  0  0  0  0999 V2000
    9.3270   -0.9426   -1.1939 N   0  0  0  0  0  0  0  0  0  0  0  0
    7.9596   -0.6492   -1.3386 C   0  0  0  0  0  0  0  0  0  0  0  0
    7.3524   -0.7929   -2.5294 N   0  0  0  0  0  0  0  0  0  0  0  0
    6.0437   -0.4984   -2.6170 C   0  0  0  0  0  0  0  0  0  0  0  0
    5.4010   -0.6069   -3.6964 O   0  0  0  0  0  0  0  0  0  0  0  0
    5.3397   -0.0580   -1.5084 C   0  0  0  0  0  0  0  0  0  0  0  0
    5.9851    0.0860   -0.2802 C   0  0  0  0  0  0  0  0  0  0  0  0
    7.2960   -0.2209   -0.2406 N   0  0  0  0  0  0  0  0  0  0  0  0
    5.2557    0.5350    0.8351 N   0  0  0  0  0  0  0  0  0  0  0  0
    3.8654    0.9243    0.8051 C   0  0  0  0  0  0  0  0  0  0  0  0
    3.1810    0.1937   -0.3508 C   0  0  2  0  0  0  0  0  0  0  0  0
    3.0930   -1.2527    0.0702 C   0  0  0  0  0  0  0  0  0  0  0  0
    2.3235   -1.3562    1.2629 N   0  0  0  0  0  0  0  0  0  0  0  0
    0.9445   -1.0999    1.2893 C   0  0  0  0  0  0  0  0  0  0  0  0
    0.2220   -0.9922    0.1328 C   0  0  0  0  0  0  0  0  0  0  0  0
   -1.1534   -0.7195    0.2017 C   0  0  0  0  0  0  0  0  0  0  0  0
   -1.8231   -0.5533    1.3913 C   0  0  0  0  0  0  0  0  0  0  0  0
   -3.2454   -0.2663    1.4725 C   0  0  0  0  0  0  0  0  0  0  0  0
   -3.8340   -0.3576    2.5768 O   0  0  0  0  0  0  0  0  0  0  0  0
   -4.0400    0.1191    0.3724 N   0  0  0  0  0  0  0  0  0  0  0  0
   -5.4711    0.4043    0.4534 C   0  0  1  0  0  0  0  0  0  0  0  0
   -5.7972    1.8221    0.2960 C   0  0  0  0  0  0  0  0  0  0  0  0
   -7.2593    2.1106    0.3374 C   0  0  0  0  0  0  0  0  0  0  0  0
   -8.0568    1.6425   -0.8053 C   0  0  0  0  0  0  0  0  0  0  0  0
   -7.6146    1.3118   -1.9233 O   0  0  0  0  0  0  0  0  0  0  0  0
   -9.4385    1.5591   -0.6226 O   0  0  0  0  0  0  0  0  0  0  0  0
   -6.1788   -0.5136   -0.4051 C   0  0  0  0  0  0  0  0  0  0  0  0
   -5.7087   -0.9886   -1.4598 O   0  0  0  0  0  0  0  0  0  0  0  0
   -7.4810   -0.9229   -0.0494 O   0  0  0  0  0  0  0  0  0  0  0  0
   -1.0727   -0.6672    2.5470 C   0  0  0  0  0  0  0  0  0  0  0  0
    0.2796   -0.9340    2.5019 C   0  0  0  0  0  0  0  0  0  0  0  0
    3.9639    0.2639   -1.5575 N   0  0  0  0  0  0  0  0  0  0  0  0
    9.6726   -1.8461   -1.5852 H   0  0  0  0  0  0  0  0  0  0  0  0
    9.9395   -0.2441   -0.7012 H   0  0  0  0  0  0  0  0  0  0  0  0
    7.7924   -0.1183    0.6702 H   0  0  0  0  0  0  0  0  0  0  0  0
    5.7549    0.5936    1.7595 H   0  0  0  0  0  0  0  0  0  0  0  0
    3.3677    0.5530    1.7335 H   0  0  0  0  0  0  0  0  0  0  0  0
    3.7283    2.0175    0.7092 H   0  0  0  0  0  0  0  0  0  0  0  0
    2.1968    0.6058   -0.5478 H   0  0  0  0  0  0  0  0  0  0  0  0
    4.1157   -1.6968    0.1909 H   0  0  0  0  0  0  0  0  0  0  0  0
    2.5819   -1.8090   -0.7495 H   0  0  0  0  0  0  0  0  0  0  0  0
    2.8118   -1.6350    2.1548 H   0  0  0  0  0  0  0  0  0  0  0  0
    0.6967   -1.1287   -0.8364 H   0  0  0  0  0  0  0  0  0  0  0  0
   -1.7075   -0.6384   -0.7084 H   0  0  0  0  0  0  0  0  0  0  0  0
   -3.5903    0.2094   -0.5591 H   0  0  0  0  0  0  0  0  0  0  0  0
   -5.7345    0.1655    1.5609 H   0  0  0  0  0  0  0  0  0  0  0  0
   -5.4260    2.1863   -0.7178 H   0  0  0  0  0  0  0  0  0  0  0  0
   -5.3413    2.4827    1.0928 H   0  0  0  0  0  0  0  0  0  0  0  0
   -7.7395    1.6854    1.2721 H   0  0  0  0  0  0  0  0  0  0  0  0
   -7.4678    3.2164    0.4565 H   0  0  0  0  0  0  0  0  0  0  0  0
  -10.0518    1.2346   -1.3697 H   0  0  0  0  0  0  0  0  0  0  0  0
   -8.0865   -1.3927   -0.7100 H   0  0  0  0  0  0  0  0  0  0  0  0
   -1.5831   -0.5382    3.5143 H   0  0  0  0  0  0  0  0  0  0  0  0
    0.8760   -1.0254    3.4071 H   0  0  0  0  0  0  0  0  0  0  0  0
    3.5355    0.5435   -2.4553 H   0  0  0  0  0  0  0  0  0  0  0  0
  1  2  1  0
  2  3  2  0
  3  4  1  0
  4  5  2  0
  4  6  1  0
  6  7  2  0
  7  8  1  0
  7  9  1  0
  9 10  1  0
 10 11  1  0
 11 12  1  0
 12 13  1  0
 13 14  1  0
 14 15  2  0
 15 16  1  0
 16 17  2  0
 17 18  1  0
 18 19  2  0
 18 20  1  0
 20 21  1  0
 21 22  1  0
 22 23  1  0
 23 24  1  0
 24 25  2  0
 24 26  1  0
 21 27  1  0
 27 28  2  0
 27 29  1  0
 17 30  1  0
 30 31  2  0
 11 32  1  0
  8  2  1  0
 31 14  1  0
 32  6  1  0
  1 33  1  0
  1 34  1  0
  8 35  1  0
  9 36  1  0
 10 37  1  0
 10 38  1  0
 11 39  1  6
 12 40  1  0
 12 41  1  0
 13 42  1  0
 15 43  1  0
 16 44  1  0
 20 45  1  0
 21 46  1  1
 22 47  1  0
 22 48  1  0
 23 49  1  0
 23 50  1  0
 26 51  1  0
 29 52  1  0
 30 53  1  0
 31 54  1  0
 32 55  1  0
M  END
$$$$

     RDKit          3D

 55 57  0  0  0  0  0  0  0  0999 V2000
   -9.1721    0.9061    1.0894 N   0  0  0  0  0  0  0  0  0  0  0  0
   -7.8417    0.8481    0.6035 C   0  0  0  0  0  0  0  0  0  0  0  0
   -7.1038    1.9627    0.4245 N   0  0  0  0  0  0  0  0  0  0  0  0
   -5.8518    1.9085   -0.0327 C   0  0  0  0  0  0  0  0  0  0  0  0
   -5.1558    2.9298   -0.2040 O   0  0  0  0  0  0  0  0  0  0  0  0
   -5.2976    0.6783   -0.3302 C   0  0  0  0  0  0  0  0  0  0  0  0
   -6.0435   -0.4611   -0.1502 C   0  0  0  0  0  0  0  0  0  0  0  0
   -7.3038   -0.3672    0.3131 N   0  0  0  0  0  0  0  0  0  0  0  0
   -5.4609   -1.7271   -0.4608 N   0  0  0  0  0  0  0  0  0  0  0  0
   -4.1892   -1.8057   -1.1726 C   0  0  0  0  0  0  0  0  0  0  0  0
   -3.2863   -0.7053   -0.6535 C   0  0  2  0  0  0  0  0  0  0  0  0
   -3.1189   -0.9131    0.8225 C   0  0  0  0  0  0  0  0  0  0  0  0
   -2.2668    0.1039    1.3660 N   0  0  0  0  0  0  0  0  0  0  0  0
   -0.9021    0.2188    1.0777 C   0  0  0  0  0  0  0  0  0  0  0  0
   -0.2085   -0.7807    0.4327 C   0  0  0  0  0  0  0  0  0  0  0  0
    1.1523   -0.6405    0.1392 C   0  0  0  0  0  0  0  0  0  0  0  0
    1.8211    0.5033    0.4929 C   0  0  0  0  0  0  0  0  0  0  0  0
    3.2328    0.7173    0.2196 C   0  0  0  0  0  0  0  0  0  0  0  0
    3.7649    1.8002    0.5726 O   0  0  0  0  0  0  0  0  0  0  0  0
    4.0351   -0.2452   -0.4291 N   0  0  0  0  0  0  0  0  0  0  0  0
    5.4766    0.0219   -0.6865 C   0  0  1  0  0  0  0  0  0  0  0  0
    6.3128   -0.9720    0.0449 C   0  0  0  0  0  0  0  0  0  0  0  0
    7.7616   -0.7560   -0.1749 C   0  0  0  0  0  0  0  0  0  0  0  0
    8.3072    0.5337    0.2533 C   0  0  0  0  0  0  0  0  0  0  0  0
    7.6049    1.3926    0.8177 O   0  0  0  0  0  0  0  0  0  0  0  0
    9.6400    0.7988    0.0212 O   0  0  0  0  0  0  0  0  0  0  0  0
    5.6525    0.0283   -2.1505 C   0  0  0  0  0  0  0  0  0  0  0  0
    4.6910   -0.1983   -2.9159 O   0  0  0  0  0  0  0  0  0  0  0  0
    6.8834    0.2855   -2.7291 O   0  0  0  0  0  0  0  0  0  0  0  0
    1.0860    1.4958    1.1463 C   0  0  0  0  0  0  0  0  0  0  0  0
   -0.2400    1.3978    1.4499 C   0  0  0  0  0  0  0  0  0  0  0  0
   -3.9767    0.5728   -0.8165 N   0  0  0  0  0  0  0  0  0  0  0  0
   -9.9378    0.4447    0.5555 H   0  0  0  0  0  0  0  0  0  0  0  0
   -9.4289    1.3995    1.9760 H   0  0  0  0  0  0  0  0  0  0  0  0
   -7.8976   -1.2180    0.4609 H   0  0  0  0  0  0  0  0  0  0  0  0
   -5.9797   -2.5733   -0.1592 H   0  0  0  0  0  0  0  0  0  0  0  0
   -3.7082   -2.7743   -1.0137 H   0  0  0  0  0  0  0  0  0  0  0  0
   -4.3956   -1.6238   -2.2382 H   0  0  0  0  0  0  0  0  0  0  0  0
   -2.3434   -0.6843   -1.1920 H   0  0  0  0  0  0  0  0  0  0  0  0
   -2.6453   -1.9176    1.0044 H   0  0  0  0  0  0  0  0  0  0  0  0
   -4.1138   -0.9328    1.3327 H   0  0  0  0  0  0  0  0  0  0  0  0
   -2.7117    0.7982    2.0207 H   0  0  0  0  0  0  0  0  0  0  0  0
   -0.7197   -1.6855    0.1602 H   0  0  0  0  0  0  0  0  0  0  0  0
    1.6667   -1.4394   -0.3663 H   0  0  0  0  0  0  0  0  0  0  0  0
    3.6115   -1.1372   -0.7233 H   0  0  0  0  0  0  0  0  0  0  0  0
    5.6490    1.0369   -0.2766 H   0  0  0  0  0  0  0  0  0  0  0  0
    6.0052   -1.9982   -0.2743 H   0  0  0  0  0  0  0  0  0  0  0  0
    6.1169   -0.9287    1.1384 H   0  0  0  0  0  0  0  0  0  0  0  0
    8.0516   -0.9844   -1.2345 H   0  0  0  0  0  0  0  0  0  0  0  0
    8.3537   -1.5348    0.4124 H   0  0  0  0  0  0  0  0  0  0  0  0
   10.1304    1.4984    0.5611 H   0  0  0  0  0  0  0  0  0  0  0  0
    6.9888    0.7495   -3.6233 H   0  0  0  0  0  0  0  0  0  0  0  0
    1.6231    2.4095    1.4285 H   0  0  0  0  0  0  0  0  0  0  0  0
   -0.8051    2.1719    1.9574 H   0  0  0  0  0  0  0  0  0  0  0  0
   -3.5125    1.3918   -1.2793 H   0  0  0  0  0  0  0  0  0  0  0  0
  1  2  1  0
  2  3  2  0
  3  4  1  0
  4  5  2  0
  4  6  1  0
  6  7  2  0
  7  8  1  0
  7  9  1  0
  9 10  1  0
 10 11  1  0
 11 12  1  0
 12 13  1  0
 13 14  1  0
 14 15  2  0
 15 16  1  0
 16 17  2  0
 17 18  1  0
 18 19  2  0
 18 20  1  0
 20 21  1  0
 21 22  1  0
 22 23  1  0
 23 24  1  0
 24 25  2  0
 24 26  1  0
 21 27  1  0
 27 28  2  0
 27 29  1  0
 17 30  1  0
 30 31  2  0
 11 32  1  0
  8  2  1  0
 31 14  1  0
 32  6  1  0
  1 33  1  0
  1 34  1  0
  8 35  1  0
  9 36  1  0
 10 37  1  0
 10 38  1  0
 11 39  1  6
 12 40  1  0
 12 41  1  0
 13 42  1  0
 15 43  1  0
 16 44  1  0
 20 45  1  0
 21 46  1  1
 22 47  1  0
 22 48  1  0
 23 49  1  0
 23 50  1  0
 26 51  1  0
 29 52  1  0
 30 53  1  0
 31 54  1  0
 32 55  1  0
M  END
$$$$

     RDKit          3D

 55 57  0  0  0  0  0  0  0  0999 V2000
   10.1794    0.0643   -0.7940 N   0  0  0  0  0  0  0  0  0  0  0  0
    8.8343    0.5005   -0.6891 C   0  0  0  0  0  0  0  0  0  0  0  0
    8.5348    1.8142   -0.6024 N   0  0  0  0  0  0  0  0  0  0  0  0
    7.2486    2.1949   -0.5035 C   0  0  0  0  0  0  0  0  0  0  0  0
    6.9091    3.4121   -0.4192 O   0  0  0  0  0  0  0  0  0  0  0  0
    6.2241    1.2707   -0.4884 C   0  0  0  0  0  0  0  0  0  0  0  0
    6.5981   -0.0602   -0.5806 C   0  0  0  0  0  0  0  0  0  0  0  0
    7.8809   -0.4536   -0.6801 N   0  0  0  0  0  0  0  0  0  0  0  0
    5.5670   -1.0351   -0.5682 N   0  0  0  0  0  0  0  0  0  0  0  0
    4.2175   -0.6020   -0.8652 C   0  0  0  0  0  0  0  0  0  0  0  0
    3.9306    0.5984    0.0218 C   0  0  2  0  0  0  0  0  0  0  0  0
    2.5067    1.0242   -0.0277 C   0  0  0  0  0  0  0  0  0  0  0  0
    1.6683   -0.0616    0.4139 N   0  0  0  0  0  0  0  0  0  0  0  0
    0.2508    0.0506    0.4739 C   0  0  0  0  0  0  0  0  0  0  0  0
   -0.5594   -0.9803    0.8885 C   0  0  0  0  0  0  0  0  0  0  0  0
   -1.9469   -0.8693    0.9468 C   0  0  0  0  0  0  0  0  0  0  0  0
   -2.5655    0.2957    0.5854 C   0  0  0  0  0  0  0  0  0  0  0  0
   -4.0262    0.4928    0.6173 C   0  0  0  0  0  0  0  0  0  0  0  0
   -4.5067    1.6129    0.2992 O   0  0  0  0  0  0  0  0  0  0  0  0
   -4.9317   -0.5246    0.9915 N   0  0  0  0  0  0  0  0  0  0  0  0
   -6.3863   -0.3305    1.0175 C   0  0  1  0  0  0  0  0  0  0  0  0
   -7.0314   -1.5045    0.3291 C   0  0  0  0  0  0  0  0  0  0  0  0
   -6.6204   -1.6653   -1.1016 C   0  0  0  0  0  0  0  0  0  0  0  0
   -7.0178   -0.4722   -1.8746 C   0  0  0  0  0  0  0  0  0  0  0  0
   -6.2803    0.5165   -1.9272 O   0  0  0  0  0  0  0  0  0  0  0  0
   -8.2267   -0.4760   -2.5394 O   0  0  0  0  0  0  0  0  0  0  0  0
   -6.8472   -0.2552    2.4499 C   0  0  0  0  0  0  0  0  0  0  0  0
   -6.0288   -0.3554    3.3828 O   0  0  0  0  0  0  0  0  0  0  0  0
   -8.1908   -0.0734    2.7002 O   0  0  0  0  0  0  0  0  0  0  0  0
   -1.7522    1.3472    0.1636 C   0  0  0  0  0  0  0  0  0  0  0  0
   -0.3779    1.2231    0.1107 C   0  0  0  0  0  0  0  0  0  0  0  0
    4.8540    1.6397   -0.3844 N   0  0  0  0  0  0  0  0  0  0  0  0
   10.4494   -0.9039   -1.0502 H   0  0  0  0  0  0  0  0  0  0  0  0
   10.9359    0.7456   -0.6055 H   0  0  0  0  0  0  0  0  0  0  0  0
    8.1354   -1.4844   -0.7496 H   0  0  0  0  0  0  0  0  0  0  0  0
    5.7536   -2.0360   -0.3547 H   0  0  0  0  0  0  0  0  0  0  0  0
    3.4769   -1.4023   -0.7533 H   0  0  0  0  0  0  0  0  0  0  0  0
    4.2372   -0.1882   -1.9149 H   0  0  0  0  0  0  0  0  0  0  0  0
    4.2242    0.2917    1.0613 H   0  0  0  0  0  0  0  0  0  0  0  0
    2.2783    1.2937   -1.0985 H   0  0  0  0  0  0  0  0  0  0  0  0
    2.3856    1.9005    0.6370 H   0  0  0  0  0  0  0  0  0  0  0  0
    2.1136   -0.9552    0.6975 H   0  0  0  0  0  0  0  0  0  0  0  0
   -0.0828   -1.9092    1.1780 H   0  0  0  0  0  0  0  0  0  0  0  0
   -2.5415   -1.7051    1.2788 H   0  0  0  0  0  0  0  0  0  0  0  0
   -4.5299   -1.4587    1.2609 H   0  0  0  0  0  0  0  0  0  0  0  0
   -6.6516    0.6202    0.5279 H   0  0  0  0  0  0  0  0  0  0  0  0
   -8.1553   -1.4391    0.3834 H   0  0  0  0  0  0  0  0  0  0  0  0
   -6.7542   -2.4719    0.8434 H   0  0  0  0  0  0  0  0  0  0  0  0
   -5.5144   -1.8203   -1.1428 H   0  0  0  0  0  0  0  0  0  0  0  0
   -7.0985   -2.5908   -1.5217 H   0  0  0  0  0  0  0  0  0  0  0  0
   -8.7417    0.3842   -2.7158 H   0  0  0  0  0  0  0  0  0  0  0  0
   -8.5917   -0.1495    3.6271 H   0  0  0  0  0  0  0  0  0  0  0  0
   -2.2612    2.2590   -0.1175 H   0  0  0  0  0  0  0  0  0  0  0  0
    0.2481    2.0461   -0.2187 H   0  0  0  0  0  0  0  0  0  0  0  0
    4.5764    2.6179   -0.5987 H   0  0  0  0  0  0  0  0  0  0  0  0
  1  2  1  0
  2  3  2  0
  3  4  1  0
  4  5  2  0
  4  6  1  0
  6  7  2  0
  7  8  1  0
  7  9  1  0
  9 10  1  0
 10 11  1  0
 11 12  1  0
 12 13  1  0
 13 14  1  0
 14 15  2  0
 15 16  1  0
 16 17  2  0
 17 18  1  0
 18 19  2  0
 18 20  1  0
 20 21  1  0
 21 22  1  0
 22 23  1  0
 23 24  1  0
 24 25  2  0
 24 26  1  0
 21 27  1  0
 27 28  2  0
 27 29  1  0
 17 30  1  0
 30 31  2  0
 11 32  1  0
  8  2  1  0
 31 14  1  0
 32  6  1  0
  1 33  1  0
  1 34  1  0
  8 35  1  0
  9 36  1  0
 10 37  1  0
 10 38  1  0
 11 39  1  1
 12 40  1  0
 12 41  1  0
 13 42  1  0
 15 43  1  0
 16 44  1  0
 20 45  1  0
 21 46  1  6
 22 47  1  0
 22 48  1  0
 23 49  1  0
 23 50  1  0
 26 51  1  0
 29 52  1  0
 30 53  1  0
 31 54  1  0
 32 55  1  0
M  END
$$$$

     RDKit          3D

 55 57  0  0  0  0  0  0  0  0999 V2000
    8.4458   -2.9699   -0.7114 N   0  0  0  0  0  0  0  0  0  0  0  0
    7.1388   -2.4069   -0.6146 C   0  0  0  0  0  0  0  0  0  0  0  0
    6.1077   -3.1852   -0.3100 N   0  0  0  0  0  0  0  0  0  0  0  0
    4.8457   -2.7088   -0.2039 C   0  0  0  0  0  0  0  0  0  0  0  0
    3.8879   -3.4584    0.0839 O   0  0  0  0  0  0  0  0  0  0  0  0
    4.6964   -1.3376   -0.4365 C   0  0  0  0  0  0  0  0  0  0  0  0
    5.7938   -0.5666   -0.7500 C   0  0  0  0  0  0  0  0  0  0  0  0
    7.0337   -1.0775   -0.8463 N   0  0  0  0  0  0  0  0  0  0  0  0
    5.5674    0.8152   -0.9736 N   0  0  0  0  0  0  0  0  0  0  0  0
    4.2597    1.3557   -1.2772 C   0  0  0  0  0  0  0  0  0  0  0  0
    3.1702    0.6684   -0.4851 C   0  0  2  0  0  0  0  0  0  0  0  0
    3.1044    1.2155    0.9369 C   0  0  0  0  0  0  0  0  0  0  0  0
    2.0464    0.5263    1.6238 N   0  0  0  0  0  0  0  0  0  0  0  0
    0.7011    0.7651    1.2444 C   0  0  0  0  0  0  0  0  0  0  0  0
   -0.3361   -0.0323    1.6997 C   0  0  0  0  0  0  0  0  0  0  0  0
   -1.6394    0.2275    1.3347 C   0  0  0  0  0  0  0  0  0  0  0  0
   -1.9880    1.2745    0.5115 C   0  0  0  0  0  0  0  0  0  0  0  0
   -3.3653    1.5706    0.1152 C   0  0  0  0  0  0  0  0  0  0  0  0
   -3.5910    2.4573   -0.7415 O   0  0  0  0  0  0  0  0  0  0  0  0
   -4.4730    0.8832    0.6709 N   0  0  0  0  0  0  0  0  0  0  0  0
   -5.7955    1.1902    0.2659 C   0  0  1  0  0  0  0  0  0  0  0  0
   -6.4413    0.3154   -0.7496 C   0  0  0  0  0  0  0  0  0  0  0  0
   -6.5894   -1.1225   -0.4336 C   0  0  0  0  0  0  0  0  0  0  0  0
   -5.3429   -1.8949   -0.3012 C   0  0  0  0  0  0  0  0  0  0  0  0
   -4.1943   -1.4853   -0.5820 O   0  0  0  0  0  0  0  0  0  0  0  0
   -5.4074   -3.2124    0.1794 O   0  0  0  0  0  0  0  0  0  0  0  0
   -6.7112    1.4609    1.4095 C   0  0  0  0  0  0  0  0  0  0  0  0
   -6.3513    1.4265    2.6127 O   0  0  0  0  0  0  0  0  0  0  0  0
   -8.0314    1.7672    1.1359 O   0  0  0  0  0  0  0  0  0  0  0  0
   -0.9611    2.0762    0.0523 C   0  0  0  0  0  0  0  0  0  0  0  0
    0.3542    1.8116    0.4225 C   0  0  0  0  0  0  0  0  0  0  0  0
    3.4156   -0.7480   -0.3489 N   0  0  0  0  0  0  0  0  0  0  0  0
    8.5963   -3.9571   -0.9808 H   0  0  0  0  0  0  0  0  0  0  0  0
    9.3106   -2.3939   -0.5098 H   0  0  0  0  0  0  0  0  0  0  0  0
    7.8604   -0.4903   -1.0838 H   0  0  0  0  0  0  0  0  0  0  0  0
    6.3601    1.4760   -0.9200 H   0  0  0  0  0  0  0  0  0  0  0  0
    4.0964    1.2620   -2.3702 H   0  0  0  0  0  0  0  0  0  0  0  0
    4.2284    2.4248   -1.0140 H   0  0  0  0  0  0  0  0  0  0  0  0
    2.2314    0.7729   -1.0460 H   0  0  0  0  0  0  0  0  0  0  0  0
    4.0955    1.0659    1.4431 H   0  0  0  0  0  0  0  0  0  0  0  0
    2.8906    2.3091    0.9350 H   0  0  0  0  0  0  0  0  0  0  0  0
    2.2366   -0.1385    2.3859 H   0  0  0  0  0  0  0  0  0  0  0  0
   -0.0528   -0.8538    2.3477 H   0  0  0  0  0  0  0  0  0  0  0  0
   -2.4278   -0.4263    1.7144 H   0  0  0  0  0  0  0  0  0  0  0  0
   -4.3377    0.1457    1.4239 H   0  0  0  0  0  0  0  0  0  0  0  0
   -5.7217    2.2092   -0.2634 H   0  0  0  0  0  0  0  0  0  0  0  0
   -5.8942    0.4476   -1.7317 H   0  0  0  0  0  0  0  0  0  0  0  0
   -7.4601    0.7758   -0.9437 H   0  0  0  0  0  0  0  0  0  0  0  0
   -7.1877   -1.5866   -1.2801 H   0  0  0  0  0  0  0  0  0  0  0  0
   -7.2677   -1.2672    0.4474 H   0  0  0  0  0  0  0  0  0  0  0  0
   -4.7122   -3.5985    0.8134 H   0  0  0  0  0  0  0  0  0  0  0  0
   -8.6676    2.1835    1.8022 H   0  0  0  0  0  0  0  0  0  0  0  0
   -1.2258    2.9014   -0.5949 H   0  0  0  0  0  0  0  0  0  0  0  0
    1.0996    2.5023    0.0249 H   0  0  0  0  0  0  0  0  0  0  0  0
    2.5991   -1.3648   -0.1760 H   0  0  0  0  0  0  0  0  0  0  0  0
  1  2  1  0
  2  3  2  0
  3  4  1  0
  4  5  2  0
  4  6  1  0
  6  7  2  0
  7  8  1  0
  7  9  1  0
  9 10  1  0
 10 11  1  0
 11 12  1  0
 12 13  1  0
 13 14  1  0
 14 15  2  0
 15 16  1  0
 16 17  2  0
 17 18  1  0
 18 19  2  0
 18 20  1  0
 20 21  1  0
 21 22  1  0
 22 23  1  0
 23 24  1  0
 24 25  2  0
 24 26  1  0
 21 27  1  0
 27 28  2  0
 27 29  1  0
 17 30  1  0
 30 31  2  0
 11 32  1  0
  8  2  1  0
 31 14  1  0
 32  6  1  0
  1 33  1  0
  1 34  1  0
  8 35  1  0
  9 36  1  0
 10 37  1  0
 10 38  1  0
 11 39  1  6
 12 40  1  0
 12 41  1  0
 13 42  1  0
 15 43  1  0
 16 44  1  0
 20 45  1  0
 21 46  1  6
 22 47  1  0
 22 48  1  0
 23 49  1  0
 23 50  1  0
 26 51  1  0
 29 52  1  0
 30 53  1  0
 31 54  1  0
 32 55  1  0
M  END
$$$$

     RDKit          3D

 55 57  0  0  0  0  0  0  0  0999 V2000
    9.1136    1.0858   -1.4533 N   0  0  0  0  0  0  0  0  0  0  0  0
    7.6819    1.0011   -1.4512 C   0  0  0  0  0  0  0  0  0  0  0  0
    6.9880    0.9719   -2.6008 N   0  0  0  0  0  0  0  0  0  0  0  0
    5.6639    0.8946   -2.6785 C   0  0  0  0  0  0  0  0  0  0  0  0
    5.0212    0.8678   -3.7633 O   0  0  0  0  0  0  0  0  0  0  0  0
    4.9269    0.8393   -1.5128 C   0  0  0  0  0  0  0  0  0  0  0  0
    5.6259    0.8684   -0.3282 C   0  0  0  0  0  0  0  0  0  0  0  0
    6.9861    0.9483   -0.3035 N   0  0  0  0  0  0  0  0  0  0  0  0
    4.8814    0.8120    0.8814 N   0  0  0  0  0  0  0  0  0  0  0  0
    3.4606    0.7231    0.9810 C   0  0  0  0  0  0  0  0  0  0  0  0
    2.8063    0.2911   -0.3177 C   0  0  2  0  0  0  0  0  0  0  0  0
    2.7744   -1.2304   -0.4073 C   0  0  0  0  0  0  0  0  0  0  0  0
    2.0373   -1.8379    0.6595 N   0  0  0  0  0  0  0  0  0  0  0  0
    0.6433   -1.6959    0.7503 C   0  0  0  0  0  0  0  0  0  0  0  0
   -0.0256   -2.0276    1.9068 C   0  0  0  0  0  0  0  0  0  0  0  0
   -1.4147   -1.9016    1.9839 C   0  0  0  0  0  0  0  0  0  0  0  0
   -2.1576   -1.4460    0.9178 C   0  0  0  0  0  0  0  0  0  0  0  0
   -3.6035   -1.3218    1.0195 C   0  0  0  0  0  0  0  0  0  0  0  0
   -4.1696   -1.6575    2.1131 O   0  0  0  0  0  0  0  0  0  0  0  0
   -4.4580   -0.8564    0.0055 N   0  0  0  0  0  0  0  0  0  0  0  0
   -5.8953   -0.7453    0.1398 C   0  0  1  0  0  0  0  0  0  0  0  0
   -6.2046    0.7554    0.0989 C   0  0  0  0  0  0  0  0  0  0  0  0
   -5.4500    1.3603    1.2752 C   0  0  0  0  0  0  0  0  0  0  0  0
   -5.6701    2.8149    1.3448 C   0  0  0  0  0  0  0  0  0  0  0  0
   -5.1340    3.4823    2.2513 O   0  0  0  0  0  0  0  0  0  0  0  0
   -6.4684    3.4275    0.4059 O   0  0  0  0  0  0  0  0  0  0  0  0
   -6.5539   -1.4571   -0.9716 C   0  0  0  0  0  0  0  0  0  0  0  0
   -5.8609   -2.0328   -1.8372 O   0  0  0  0  0  0  0  0  0  0  0  0
   -7.9279   -1.5143   -1.0967 O   0  0  0  0  0  0  0  0  0  0  0  0
   -1.4794   -1.1185   -0.2305 C   0  0  0  0  0  0  0  0  0  0  0  0
   -0.0825   -1.2425   -0.3166 C   0  0  0  0  0  0  0  0  0  0  0  0
    3.5267    0.7576   -1.4785 N   0  0  0  0  0  0  0  0  0  0  0  0
    9.6413    1.7859   -0.8973 H   0  0  0  0  0  0  0  0  0  0  0  0
    9.6494    0.4141   -2.0395 H   0  0  0  0  0  0  0  0  0  0  0  0
    7.4888    0.9686    0.6071 H   0  0  0  0  0  0  0  0  0  0  0  0
    5.4274    0.8382    1.7766 H   0  0  0  0  0  0  0  0  0  0  0  0
    3.0586    1.7119    1.2813 H   0  0  0  0  0  0  0  0  0  0  0  0
    3.1827    0.0127    1.8019 H   0  0  0  0  0  0  0  0  0  0  0  0
    1.7589    0.6435   -0.3149 H   0  0  0  0  0  0  0  0  0  0  0  0
    3.8267   -1.6013   -0.4691 H   0  0  0  0  0  0  0  0  0  0  0  0
    2.3452   -1.4564   -1.4236 H   0  0  0  0  0  0  0  0  0  0  0  0
    2.5460   -2.3945    1.3797 H   0  0  0  0  0  0  0  0  0  0  0  0
    0.5313   -2.3916    2.7700 H   0  0  0  0  0  0  0  0  0  0  0  0
   -1.9481   -2.1641    2.9001 H   0  0  0  0  0  0  0  0  0  0  0  0
   -4.0481   -0.5688   -0.9074 H   0  0  0  0  0  0  0  0  0  0  0  0
   -6.2500   -1.0795    1.1368 H   0  0  0  0  0  0  0  0  0  0  0  0
   -7.2958    0.9248    0.2225 H   0  0  0  0  0  0  0  0  0  0  0  0
   -5.7976    1.1426   -0.8374 H   0  0  0  0  0  0  0  0  0  0  0  0
   -4.3709    1.1157    1.1095 H   0  0  0  0  0  0  0  0  0  0  0  0
   -5.7857    0.8632    2.2186 H   0  0  0  0  0  0  0  0  0  0  0  0
   -6.4881    4.4371    0.2604 H   0  0  0  0  0  0  0  0  0  0  0  0
   -8.3640   -2.3189   -1.5157 H   0  0  0  0  0  0  0  0  0  0  0  0
   -2.0460   -0.7591   -1.0783 H   0  0  0  0  0  0  0  0  0  0  0  0
    0.3732   -0.9801   -1.2460 H   0  0  0  0  0  0  0  0  0  0  0  0
    2.9831    1.0404   -2.3131 H   0  0  0  0  0  0  0  0  0  0  0  0
  1  2  1  0
  2  3  2  0
  3  4  1  0
  4  5  2  0
  4  6  1  0
  6  7  2  0
  7  8  1  0
  7  9  1  0
  9 10  1  0
 10 11  1  0
 11 12  1  0
 12 13  1  0
 13 14  1  0
 14 15  2  0
 15 16  1  0
 16 17  2  0
 17 18  1  0
 18 19  2  0
 18 20  1  0
 20 21  1  0
 21 22  1  0
 22 23  1  0
 23 24  1  0
 24 25  2  0
 24 26  1  0
 21 27  1  0
 27 28  2  0
 27 29  1  0
 17 30  1  0
 30 31  2  0
 11 32  1  0
  8  2  1  0
 31 14  1  0
 32  6  1  0
  1 33  1  0
  1 34  1  0
  8 35  1  0
  9 36  1  0
 10 37  1  0
 10 38  1  0
 11 39  1  6
 12 40  1  0
 12 41  1  0
 13 42  1  0
 15 43  1  0
 16 44  1  0
 20 45  1  0
 21 46  1  1
 22 47  1  0
 22 48  1  0
 23 49  1  0
 23 50  1  0
 26 51  1  0
 29 52  1  0
 30 53  1  0
 31 54  1  0
 32 55  1  0
M  END
$$$$

     RDKit          3D

 55 57  0  0  0  0  0  0  0  0999 V2000
  -10.3089   -0.6616   -0.1655 N   0  0  0  0  0  0  0  0  0  0  0  0
   -8.9133   -0.5673    0.0867 C   0  0  0  0  0  0  0  0  0  0  0  0
   -8.3266   -1.2145    1.1220 N   0  0  0  0  0  0  0  0  0  0  0  0
   -6.9980   -1.1074    1.3395 C   0  0  0  0  0  0  0  0  0  0  0  0
   -6.4355   -1.7093    2.3071 O   0  0  0  0  0  0  0  0  0  0  0  0
   -6.1789   -0.3474    0.5353 C   0  0  0  0  0  0  0  0  0  0  0  0
   -6.7824    0.3097   -0.5175 C   0  0  0  0  0  0  0  0  0  0  0  0
   -8.1202    0.1776   -0.7037 N   0  0  0  0  0  0  0  0  0  0  0  0
   -5.9737    1.1001   -1.3635 N   0  0  0  0  0  0  0  0  0  0  0  0
   -4.5299    0.9834   -1.3023 C   0  0  0  0  0  0  0  0  0  0  0  0
   -4.1314    0.9176    0.1387 C   0  0  2  0  0  0  0  0  0  0  0  0
   -2.6672    1.0001    0.3774 C   0  0  0  0  0  0  0  0  0  0  0  0
   -1.8915   -0.0270   -0.2307 N   0  0  0  0  0  0  0  0  0  0  0  0
   -0.4851   -0.0277   -0.0553 C   0  0  0  0  0  0  0  0  0  0  0  0
    0.1153    0.9471    0.7096 C   0  0  0  0  0  0  0  0  0  0  0  0
    1.4901    0.9815    0.9042 C   0  0  0  0  0  0  0  0  0  0  0  0
    2.3172    0.0221    0.3268 C   0  0  0  0  0  0  0  0  0  0  0  0
    3.7578    0.0542    0.5323 C   0  0  0  0  0  0  0  0  0  0  0  0
    4.2056    0.9108    1.3523 O   0  0  0  0  0  0  0  0  0  0  0  0
    4.6816   -0.7909   -0.1098 N   0  0  0  0  0  0  0  0  0  0  0  0
    6.1272   -0.7079    0.1461 C   0  0  1  0  0  0  0  0  0  0  0  0
    6.6534    0.5858   -0.3861 C   0  0  0  0  0  0  0  0  0  0  0  0
    8.1048    0.8154   -0.1994 C   0  0  0  0  0  0  0  0  0  0  0  0
    8.9865   -0.1697   -0.8565 C   0  0  0  0  0  0  0  0  0  0  0  0
   10.2499   -0.1403   -0.6628 O   0  0  0  0  0  0  0  0  0  0  0  0
    8.4339   -1.1250   -1.6855 O   0  0  0  0  0  0  0  0  0  0  0  0
    6.3987   -0.9213    1.5957 C   0  0  0  0  0  0  0  0  0  0  0  0
    5.4456   -1.1363    2.3815 O   0  0  0  0  0  0  0  0  0  0  0  0
    7.6647   -0.8977    2.1436 O   0  0  0  0  0  0  0  0  0  0  0  0
    1.7318   -0.9505   -0.4347 C   0  0  0  0  0  0  0  0  0  0  0  0
    0.3425   -0.9670   -0.6184 C   0  0  0  0  0  0  0  0  0  0  0  0
   -4.7764   -0.2140    0.7344 N   0  0  0  0  0  0  0  0  0  0  0  0
  -10.6089   -1.1843   -1.0133 H   0  0  0  0  0  0  0  0  0  0  0  0
  -11.0546   -0.2490    0.4307 H   0  0  0  0  0  0  0  0  0  0  0  0
   -8.5633    0.6919   -1.5208 H   0  0  0  0  0  0  0  0  0  0  0  0
   -6.4094    1.7660   -2.0315 H   0  0  0  0  0  0  0  0  0  0  0  0
   -4.0208    1.7788   -1.8735 H   0  0  0  0  0  0  0  0  0  0  0  0
   -4.2732    0.0147   -1.8222 H   0  0  0  0  0  0  0  0  0  0  0  0
   -4.5889    1.8287    0.6279 H   0  0  0  0  0  0  0  0  0  0  0  0
   -2.4762    0.9967    1.4672 H   0  0  0  0  0  0  0  0  0  0  0  0
   -2.3233    1.9858   -0.0449 H   0  0  0  0  0  0  0  0  0  0  0  0
   -2.3121   -0.7949   -0.8104 H   0  0  0  0  0  0  0  0  0  0  0  0
   -0.5136    1.7125    1.1732 H   0  0  0  0  0  0  0  0  0  0  0  0
    1.9497    1.7533    1.5080 H   0  0  0  0  0  0  0  0  0  0  0  0
    4.3339   -1.5069   -0.7958 H   0  0  0  0  0  0  0  0  0  0  0  0
    6.6291   -1.5484   -0.3685 H   0  0  0  0  0  0  0  0  0  0  0  0
    6.4354    0.5800   -1.4969 H   0  0  0  0  0  0  0  0  0  0  0  0
    6.0495    1.4300    0.0187 H   0  0  0  0  0  0  0  0  0  0  0  0
    8.3909    1.8181   -0.6208 H   0  0  0  0  0  0  0  0  0  0  0  0
    8.4177    0.8801    0.8679 H   0  0  0  0  0  0  0  0  0  0  0  0
    9.0246   -1.7529   -2.2223 H   0  0  0  0  0  0  0  0  0  0  0  0
    7.7985   -0.8984    3.1466 H   0  0  0  0  0  0  0  0  0  0  0  0
    2.3237   -1.7191   -0.9056 H   0  0  0  0  0  0  0  0  0  0  0  0
   -0.0948   -1.7577   -1.2325 H   0  0  0  0  0  0  0  0  0  0  0  0
   -4.3013   -0.9476    1.3021 H   0  0  0  0  0  0  0  0  0  0  0  0
  1  2  1  0
  2  3  2  0
  3  4  1  0
  4  5  2  0
  4  6  1  0
  6  7  2  0
  7  8  1  0
  7  9  1  0
  9 10  1  0
 10 11  1  0
 11 12  1  0
 12 13  1  0
 13 14  1  0
 14 15  2  0
 15 16  1  0
 16 17  2  0
 17 18  1  0
 18 19  2  0
 18 20  1  0
 20 21  1  0
 21 22  1  0
 22 23  1  0
 23 24  1  0
 24 25  2  0
 24 26  1  0
 21 27  1  0
 27 28  2  0
 27 29  1  0
 17 30  1  0
 30 31  2  0
 11 32  1  0
  8  2  1  0
 31 14  1  0
 32  6  1  0
  1 33  1  0
  1 34  1  0
  8 35  1  0
  9 36  1  0
 10 37  1  0
 10 38  1  0
 11 39  1  1
 12 40  1  0
 12 41  1  0
 13 42  1  0
 15 43  1  0
 16 44  1  0
 20 45  1  0
 21 46  1  6
 22 47  1  0
 22 48  1  0
 23 49  1  0
 23 50  1  0
 26 51  1  0
 29 52  1  0
 30 53  1  0
 31 54  1  0
 32 55  1  0
M  END
$$$$

     RDKit          3D

 55 57  0  0  0  0  0  0  0  0999 V2000
    9.8098   -0.3881    1.3740 N   0  0  0  0  0  0  0  0  0  0  0  0
    8.4384   -0.6431    1.0598 C   0  0  0  0  0  0  0  0  0  0  0  0
    7.8303   -1.7201    1.5774 N   0  0  0  0  0  0  0  0  0  0  0  0
    6.5425   -1.9393    1.2679 C   0  0  0  0  0  0  0  0  0  0  0  0
    5.8862   -2.9310    1.7102 O   0  0  0  0  0  0  0  0  0  0  0  0
    5.8966   -1.0561    0.4354 C   0  0  0  0  0  0  0  0  0  0  0  0
    6.5499    0.0451   -0.0825 C   0  0  0  0  0  0  0  0  0  0  0  0
    7.8385    0.2324    0.2490 N   0  0  0  0  0  0  0  0  0  0  0  0
    5.8798    0.9530   -0.9393 N   0  0  0  0  0  0  0  0  0  0  0  0
    4.5235    0.7518   -1.3685 C   0  0  0  0  0  0  0  0  0  0  0  0
    4.1104   -0.6948   -1.2197 C   0  0  2  0  0  0  0  0  0  0  0  0
    2.6038   -0.7615   -1.2429 C   0  0  0  0  0  0  0  0  0  0  0  0
    2.0771    0.0015   -0.1505 N   0  0  0  0  0  0  0  0  0  0  0  0
    0.6659    0.1260   -0.0401 C   0  0  0  0  0  0  0  0  0  0  0  0
    0.0437    0.8182    0.9930 C   0  0  0  0  0  0  0  0  0  0  0  0
   -1.3196    0.9298    1.0774 C   0  0  0  0  0  0  0  0  0  0  0  0
   -2.1408    0.3614    0.1424 C   0  0  0  0  0  0  0  0  0  0  0  0
   -3.5871    0.5032    0.2755 C   0  0  0  0  0  0  0  0  0  0  0  0
   -4.0489    0.9815    1.3479 O   0  0  0  0  0  0  0  0  0  0  0  0
   -4.4909    0.1301   -0.7401 N   0  0  0  0  0  0  0  0  0  0  0  0
   -5.9531    0.3061   -0.5352 C   0  0  1  0  0  0  0  0  0  0  0  0
   -6.4798   -0.7407    0.3352 C   0  0  0  0  0  0  0  0  0  0  0  0
   -7.8720   -0.8144    0.7598 C   0  0  0  0  0  0  0  0  0  0  0  0
   -8.4290    0.1906    1.6436 C   0  0  0  0  0  0  0  0  0  0  0  0
   -7.6975    0.9897    2.2643 O   0  0  0  0  0  0  0  0  0  0  0  0
   -9.7915    0.2974    1.8285 O   0  0  0  0  0  0  0  0  0  0  0  0
   -6.2185    1.7023   -0.3762 C   0  0  0  0  0  0  0  0  0  0  0  0
   -5.2853    2.5751   -0.2751 O   0  0  0  0  0  0  0  0  0  0  0  0
   -7.4822    2.2808   -0.3204 O   0  0  0  0  0  0  0  0  0  0  0  0
   -1.5651   -0.3333   -0.8974 C   0  0  0  0  0  0  0  0  0  0  0  0
   -0.1921   -0.4368   -0.9685 C   0  0  0  0  0  0  0  0  0  0  0  0
    4.5392   -1.2386    0.0734 N   0  0  0  0  0  0  0  0  0  0  0  0
   10.0224    0.2055    2.1966 H   0  0  0  0  0  0  0  0  0  0  0  0
   10.5339   -0.8092    0.7639 H   0  0  0  0  0  0  0  0  0  0  0  0
    8.3175    1.0694   -0.1510 H   0  0  0  0  0  0  0  0  0  0  0  0
    6.3898    1.8000   -1.2720 H   0  0  0  0  0  0  0  0  0  0  0  0
    3.8076    1.3834   -0.8222 H   0  0  0  0  0  0  0  0  0  0  0  0
    4.4009    1.0111   -2.4509 H   0  0  0  0  0  0  0  0  0  0  0  0
    4.5509   -1.3214   -2.0530 H   0  0  0  0  0  0  0  0  0  0  0  0
    2.3363   -1.8376   -1.0489 H   0  0  0  0  0  0  0  0  0  0  0  0
    2.2142   -0.4318   -2.2322 H   0  0  0  0  0  0  0  0  0  0  0  0
    2.6883    0.4399    0.5347 H   0  0  0  0  0  0  0  0  0  0  0  0
    0.7089    1.2659    1.7303 H   0  0  0  0  0  0  0  0  0  0  0  0
   -1.7447    1.4929    1.9235 H   0  0  0  0  0  0  0  0  0  0  0  0
   -4.0948   -0.2641   -1.6184 H   0  0  0  0  0  0  0  0  0  0  0  0
   -6.3524    0.0423   -1.5973 H   0  0  0  0  0  0  0  0  0  0  0  0
   -5.7765   -0.7948    1.2367 H   0  0  0  0  0  0  0  0  0  0  0  0
   -6.2351   -1.7552   -0.1392 H   0  0  0  0  0  0  0  0  0  0  0  0
   -8.0375   -1.8621    1.1836 H   0  0  0  0  0  0  0  0  0  0  0  0
   -8.5818   -0.8479   -0.1333 H   0  0  0  0  0  0  0  0  0  0  0  0
  -10.1415    1.1848    2.2113 H   0  0  0  0  0  0  0  0  0  0  0  0
   -7.7099    3.0860    0.2329 H   0  0  0  0  0  0  0  0  0  0  0  0
   -2.1681   -0.8078   -1.6704 H   0  0  0  0  0  0  0  0  0  0  0  0
    0.2928   -0.9864   -1.7889 H   0  0  0  0  0  0  0  0  0  0  0  0
    3.8968   -1.7412    0.7162 H   0  0  0  0  0  0  0  0  0  0  0  0
  1  2  1  0
  2  3  2  0
  3  4  1  0
  4  5  2  0
  4  6  1  0
  6  7  2  0
  7  8  1  0
  7  9  1  0
  9 10  1  0
 10 11  1  0
 11 12  1  0
 12 13  1  0
 13 14  1  0
 14 15  2  0
 15 16  1  0
 16 17  2  0
 17 18  1  0
 18 19  2  0
 18 20  1  0
 20 21  1  0
 21 22  1  0
 22 23  1  0
 23 24  1  0
 24 25  2  0
 24 26  1  0
 21 27  1  0
 27 28  2  0
 27 29  1  0
 17 30  1  0
 30 31  2  0
 11 32  1  0
  8  2  1  0
 31 14  1  0
 32  6  1  0
  1 33  1  0
  1 34  1  0
  8 35  1  0
  9 36  1  0
 10 37  1  0
 10 38  1  0
 11 39  1  6
 12 40  1  0
 12 41  1  0
 13 42  1  0
 15 43  1  0
 16 44  1  0
 20 45  1  0
 21 46  1  6
 22 47  1  0
 22 48  1  0
 23 49  1  0
 23 50  1  0
 26 51  1  0
 29 52  1  0
 30 53  1  0
 31 54  1  0
 32 55  1  0
M  END
$$$$

     RDKit          3D

 55 57  0  0  0  0  0  0  0  0999 V2000
   10.2778   -0.7972    0.3407 N   0  0  0  0  0  0  0  0  0  0  0  0
    8.9255   -0.4976    0.0545 C   0  0  0  0  0  0  0  0  0  0  0  0
    8.5865   -0.0712   -1.1715 N   0  0  0  0  0  0  0  0  0  0  0  0
    7.3380    0.2333   -1.5294 C   0  0  0  0  0  0  0  0  0  0  0  0
    7.0528    0.6276   -2.6772 O   0  0  0  0  0  0  0  0  0  0  0  0
    6.3324    0.1081   -0.6006 C   0  0  0  0  0  0  0  0  0  0  0  0
    6.6657   -0.3304    0.6678 C   0  0  0  0  0  0  0  0  0  0  0  0
    7.9482   -0.6221    0.9666 N   0  0  0  0  0  0  0  0  0  0  0  0
    5.6125   -0.4524    1.6099 N   0  0  0  0  0  0  0  0  0  0  0  0
    4.3075    0.1250    1.4660 C   0  0  0  0  0  0  0  0  0  0  0  0
    3.9928    0.6732    0.1191 C   0  0  2  0  0  0  0  0  0  0  0  0
    2.6371    0.2359   -0.3943 C   0  0  0  0  0  0  0  0  0  0  0  0
    1.5519    0.6570    0.4657 N   0  0  0  0  0  0  0  0  0  0  0  0
    0.2316    0.3117    0.1135 C   0  0  0  0  0  0  0  0  0  0  0  0
   -0.0004   -0.4638   -0.9929 C   0  0  0  0  0  0  0  0  0  0  0  0
   -1.3068   -0.7944   -1.3370 C   0  0  0  0  0  0  0  0  0  0  0  0
   -2.3884   -0.3697   -0.6036 C   0  0  0  0  0  0  0  0  0  0  0  0
   -3.7408   -0.7348   -0.9872 C   0  0  0  0  0  0  0  0  0  0  0  0
   -3.8869   -1.6345   -1.8592 O   0  0  0  0  0  0  0  0  0  0  0  0
   -4.9006   -0.1577   -0.4571 N   0  0  0  0  0  0  0  0  0  0  0  0
   -6.2674   -0.5397   -0.8539 C   0  0  1  0  0  0  0  0  0  0  0  0
   -7.0056   -1.1409    0.2757 C   0  0  0  0  0  0  0  0  0  0  0  0
   -7.1307   -0.3402    1.5166 C   0  0  0  0  0  0  0  0  0  0  0  0
   -7.8550    0.9051    1.4577 C   0  0  0  0  0  0  0  0  0  0  0  0
   -8.4714    1.3125    0.4746 O   0  0  0  0  0  0  0  0  0  0  0  0
   -7.9068    1.7808    2.5833 O   0  0  0  0  0  0  0  0  0  0  0  0
   -6.8727    0.5466   -1.5904 C   0  0  0  0  0  0  0  0  0  0  0  0
   -6.3397    1.6790   -1.7009 O   0  0  0  0  0  0  0  0  0  0  0  0
   -8.1142    0.3836   -2.2415 O   0  0  0  0  0  0  0  0  0  0  0  0
   -2.1353    0.4139    0.5122 C   0  0  0  0  0  0  0  0  0  0  0  0
   -0.8329    0.7468    0.8606 C   0  0  0  0  0  0  0  0  0  0  0  0
    4.9704    0.4104   -0.8933 N   0  0  0  0  0  0  0  0  0  0  0  0
   10.5641   -1.3526    1.1920 H   0  0  0  0  0  0  0  0  0  0  0  0
   11.0688   -0.4887   -0.2686 H   0  0  0  0  0  0  0  0  0  0  0  0
    8.1647   -0.9473    1.9220 H   0  0  0  0  0  0  0  0  0  0  0  0
    5.8135   -1.0063    2.4698 H   0  0  0  0  0  0  0  0  0  0  0  0
    3.5769   -0.6742    1.7384 H   0  0  0  0  0  0  0  0  0  0  0  0
    4.2287    0.9284    2.2523 H   0  0  0  0  0  0  0  0  0  0  0  0
    3.9269    1.7967    0.2048 H   0  0  0  0  0  0  0  0  0  0  0  0
    2.4358    0.7351   -1.3825 H   0  0  0  0  0  0  0  0  0  0  0  0
    2.5748   -0.8627   -0.4740 H   0  0  0  0  0  0  0  0  0  0  0  0
    1.7135    1.2061    1.3350 H   0  0  0  0  0  0  0  0  0  0  0  0
    0.8536   -0.8076   -1.5843 H   0  0  0  0  0  0  0  0  0  0  0  0
   -1.4678   -1.4051   -2.2103 H   0  0  0  0  0  0  0  0  0  0  0  0
   -4.8290    0.5878    0.2622 H   0  0  0  0  0  0  0  0  0  0  0  0
   -6.1356   -1.4197   -1.6077 H   0  0  0  0  0  0  0  0  0  0  0  0
   -8.0787   -1.3629   -0.0560 H   0  0  0  0  0  0  0  0  0  0  0  0
   -6.6343   -2.1911    0.5083 H   0  0  0  0  0  0  0  0  0  0  0  0
   -7.7211   -1.0088    2.2419 H   0  0  0  0  0  0  0  0  0  0  0  0
   -6.1183   -0.2114    2.0256 H   0  0  0  0  0  0  0  0  0  0  0  0
   -7.9285    2.7672    2.3611 H   0  0  0  0  0  0  0  0  0  0  0  0
   -8.3608    0.9620   -3.0328 H   0  0  0  0  0  0  0  0  0  0  0  0
   -2.9651    0.7576    1.1027 H   0  0  0  0  0  0  0  0  0  0  0  0
   -0.6412    1.3544    1.7275 H   0  0  0  0  0  0  0  0  0  0  0  0
    4.6840    0.4388   -1.8802 H   0  0  0  0  0  0  0  0  0  0  0  0
  1  2  1  0
  2  3  2  0
  3  4  1  0
  4  5  2  0
  4  6  1  0
  6  7  2  0
  7  8  1  0
  7  9  1  0
  9 10  1  0
 10 11  1  0
 11 12  1  0
 12 13  1  0
 13 14  1  0
 14 15  2  0
 15 16  1  0
 16 17  2  0
 17 18  1  0
 18 19  2  0
 18 20  1  0
 20 21  1  0
 21 22  1  0
 22 23  1  0
 23 24  1  0
 24 25  2  0
 24 26  1  0
 21 27  1  0
 27 28  2  0
 27 29  1  0
 17 30  1  0
 30 31  2  0
 11 32  1  0
  8  2  1  0
 31 14  1  0
 32  6  1  0
  1 33  1  0
  1 34  1  0
  8 35  1  0
  9 36  1  0
 10 37  1  0
 10 38  1  0
 11 39  1  1
 12 40  1  0
 12 41  1  0
 13 42  1  0
 15 43  1  0
 16 44  1  0
 20 45  1  0
 21 46  1  6
 22 47  1  0
 22 48  1  0
 23 49  1  0
 23 50  1  0
 26 51  1  0
 29 52  1  0
 30 53  1  0
 31 54  1  0
 32 55  1  0
M  END
$$$$

     RDKit          3D

 55 57  0  0  0  0  0  0  0  0999 V2000
   -9.5332   -0.1097   -1.5113 N   0  0  0  0  0  0  0  0  0  0  0  0
   -8.2865   -0.2048   -0.8748 C   0  0  0  0  0  0  0  0  0  0  0  0
   -7.7418   -1.4163   -0.5759 N   0  0  0  0  0  0  0  0  0  0  0  0
   -6.5419   -1.5008    0.0367 C   0  0  0  0  0  0  0  0  0  0  0  0
   -6.0151   -2.6213    0.3250 O   0  0  0  0  0  0  0  0  0  0  0  0
   -5.8284   -0.3757    0.3802 C   0  0  0  0  0  0  0  0  0  0  0  0
   -6.3858    0.8472    0.0747 C   0  0  0  0  0  0  0  0  0  0  0  0
   -7.6030    0.9033   -0.5463 N   0  0  0  0  0  0  0  0  0  0  0  0
   -5.6829    2.0167    0.4134 N   0  0  0  0  0  0  0  0  0  0  0  0
   -4.3118    1.9569    0.8133 C   0  0  0  0  0  0  0  0  0  0  0  0
   -3.9477    0.7198    1.5972 C   0  0  2  0  0  0  0  0  0  0  0  0
   -2.4727    0.5111    1.5139 C   0  0  0  0  0  0  0  0  0  0  0  0
   -2.0664    0.3315    0.1458 N   0  0  0  0  0  0  0  0  0  0  0  0
   -0.6909    0.1502   -0.1436 C   0  0  0  0  0  0  0  0  0  0  0  0
    0.2627    0.1389    0.8786 C   0  0  0  0  0  0  0  0  0  0  0  0
    1.6075   -0.0344    0.6319 C   0  0  0  0  0  0  0  0  0  0  0  0
    2.0594   -0.2033   -0.6353 C   0  0  0  0  0  0  0  0  0  0  0  0
    3.4592   -0.3914   -0.9239 C   0  0  0  0  0  0  0  0  0  0  0  0
    3.8582   -0.3362   -2.1297 O   0  0  0  0  0  0  0  0  0  0  0  0
    4.3738   -0.6342    0.1190 N   0  0  0  0  0  0  0  0  0  0  0  0
    5.8100   -0.8246   -0.1845 C   0  0  1  0  0  0  0  0  0  0  0  0
    6.5188    0.2125    0.6217 C   0  0  0  0  0  0  0  0  0  0  0  0
    7.9951    0.1669    0.4338 C   0  0  0  0  0  0  0  0  0  0  0  0
    8.4060    0.3976   -0.9556 C   0  0  0  0  0  0  0  0  0  0  0  0
    9.6210    0.2801   -1.2694 O   0  0  0  0  0  0  0  0  0  0  0  0
    7.5267    0.7432   -1.9581 O   0  0  0  0  0  0  0  0  0  0  0  0
    6.1521   -2.2178    0.1578 C   0  0  0  0  0  0  0  0  0  0  0  0
    5.3004   -2.9995    0.6522 O   0  0  0  0  0  0  0  0  0  0  0  0
    7.4361   -2.6708   -0.0723 O   0  0  0  0  0  0  0  0  0  0  0  0
    1.1511   -0.1980   -1.6673 C   0  0  0  0  0  0  0  0  0  0  0  0
   -0.2084   -0.0233   -1.4238 C   0  0  0  0  0  0  0  0  0  0  0  0
   -4.5668   -0.4825    1.0244 N   0  0  0  0  0  0  0  0  0  0  0  0
   -9.9719    0.8135   -1.6559 H   0  0  0  0  0  0  0  0  0  0  0  0
  -10.0154   -0.9837   -1.8386 H   0  0  0  0  0  0  0  0  0  0  0  0
   -7.9785    1.8518   -0.7545 H   0  0  0  0  0  0  0  0  0  0  0  0
   -6.1819    2.9304    0.3672 H   0  0  0  0  0  0  0  0  0  0  0  0
   -4.1097    2.8266    1.5095 H   0  0  0  0  0  0  0  0  0  0  0  0
   -3.6349    2.0463   -0.0540 H   0  0  0  0  0  0  0  0  0  0  0  0
   -4.2762    0.8036    2.6683 H   0  0  0  0  0  0  0  0  0  0  0  0
   -1.8941    1.3352    2.0146 H   0  0  0  0  0  0  0  0  0  0  0  0
   -2.1842   -0.4434    2.0457 H   0  0  0  0  0  0  0  0  0  0  0  0
   -2.7573    0.3297   -0.6109 H   0  0  0  0  0  0  0  0  0  0  0  0
   -0.1362    0.2781    1.8902 H   0  0  0  0  0  0  0  0  0  0  0  0
    2.2839   -0.0300    1.4592 H   0  0  0  0  0  0  0  0  0  0  0  0
    4.1119   -0.6939    1.1114 H   0  0  0  0  0  0  0  0  0  0  0  0
    5.9051   -0.7167   -1.2743 H   0  0  0  0  0  0  0  0  0  0  0  0
    6.1959    1.2522    0.3196 H   0  0  0  0  0  0  0  0  0  0  0  0
    6.2497    0.1363    1.6983 H   0  0  0  0  0  0  0  0  0  0  0  0
    8.4567    0.9827    1.0893 H   0  0  0  0  0  0  0  0  0  0  0  0
    8.3821   -0.8025    0.8106 H   0  0  0  0  0  0  0  0  0  0  0  0
    7.7834    1.3613   -2.7387 H   0  0  0  0  0  0  0  0  0  0  0  0
    7.6684   -3.6569   -0.1731 H   0  0  0  0  0  0  0  0  0  0  0  0
    1.4485   -0.3283   -2.7065 H   0  0  0  0  0  0  0  0  0  0  0  0
   -0.9254   -0.0188   -2.2350 H   0  0  0  0  0  0  0  0  0  0  0  0
   -4.0748   -1.4047    1.0955 H   0  0  0  0  0  0  0  0  0  0  0  0
  1  2  1  0
  2  3  2  0
  3  4  1  0
  4  5  2  0
  4  6  1  0
  6  7  2  0
  7  8  1  0
  7  9  1  0
  9 10  1  0
 10 11  1  0
 11 12  1  0
 12 13  1  0
 13 14  1  0
 14 15  2  0
 15 16  1  0
 16 17  2  0
 17 18  1  0
 18 19  2  0
 18 20  1  0
 20 21  1  0
 21 22  1  0
 22 23  1  0
 23 24  1  0
 24 25  2  0
 24 26  1  0
 21 27  1  0
 27 28  2  0
 27 29  1  0
 17 30  1  0
 30 31  2  0
 11 32  1  0
  8  2  1  0
 31 14  1  0
 32  6  1  0
  1 33  1  0
  1 34  1  0
  8 35  1  0
  9 36  1  0
 10 37  1  0
 10 38  1  0
 11 39  1  1
 12 40  1  0
 12 41  1  0
 13 42  1  0
 15 43  1  0
 16 44  1  0
 20 45  1  0
 21 46  1  6
 22 47  1  0
 22 48  1  0
 23 49  1  0
 23 50  1  0
 26 51  1  0
 29 52  1  0
 30 53  1  0
 31 54  1  0
 32 55  1  0
M  END
$$$$

     RDKit          3D

 55 57  0  0  0  0  0  0  0  0999 V2000
    9.1030    2.1264    0.0429 N   0  0  0  0  0  0  0  0  0  0  0  0
    7.9796    1.3052    0.2701 C   0  0  0  0  0  0  0  0  0  0  0  0
    7.3948    1.2666    1.4710 N   0  0  0  0  0  0  0  0  0  0  0  0
    6.3255    0.5062    1.7465 C   0  0  0  0  0  0  0  0  0  0  0  0
    5.7727    0.4672    2.8748 O   0  0  0  0  0  0  0  0  0  0  0  0
    5.7764   -0.2938    0.7479 C   0  0  0  0  0  0  0  0  0  0  0  0
    6.3809   -0.2507   -0.4847 C   0  0  0  0  0  0  0  0  0  0  0  0
    7.4691    0.5422   -0.7120 N   0  0  0  0  0  0  0  0  0  0  0  0
    5.8391   -1.0555   -1.5146 N   0  0  0  0  0  0  0  0  0  0  0  0
    4.4529   -1.4654   -1.4142 C   0  0  0  0  0  0  0  0  0  0  0  0
    4.0963   -2.0012   -0.0478 C   0  0  2  0  0  0  0  0  0  0  0  0
    2.5970   -1.9128    0.1039 C   0  0  0  0  0  0  0  0  0  0  0  0
    2.2025   -0.5280   -0.0001 N   0  0  0  0  0  0  0  0  0  0  0  0
    0.8127   -0.1543    0.0592 C   0  0  0  0  0  0  0  0  0  0  0  0
   -0.1142   -1.1557    0.2199 C   0  0  0  0  0  0  0  0  0  0  0  0
   -1.4708   -0.8172    0.2816 C   0  0  0  0  0  0  0  0  0  0  0  0
   -1.8885    0.4845    0.1855 C   0  0  0  0  0  0  0  0  0  0  0  0
   -3.2868    0.8263    0.2519 C   0  0  0  0  0  0  0  0  0  0  0  0
   -3.6036    2.0576    0.1428 O   0  0  0  0  0  0  0  0  0  0  0  0
   -4.3504   -0.0942    0.4296 N   0  0  0  0  0  0  0  0  0  0  0  0
   -5.7702    0.3388    0.4883 C   0  0  1  0  0  0  0  0  0  0  0  0
   -6.4440   -0.3914   -0.6229 C   0  0  0  0  0  0  0  0  0  0  0  0
   -7.8956   -0.0661   -0.7034 C   0  0  0  0  0  0  0  0  0  0  0  0
   -8.1196    1.3659   -0.9567 C   0  0  0  0  0  0  0  0  0  0  0  0
   -7.2041    2.2010   -1.1472 O   0  0  0  0  0  0  0  0  0  0  0  0
   -9.4412    1.8307   -0.9878 O   0  0  0  0  0  0  0  0  0  0  0  0
   -6.3148    0.0712    1.8281 C   0  0  0  0  0  0  0  0  0  0  0  0
   -5.5845   -0.4889    2.6809 O   0  0  0  0  0  0  0  0  0  0  0  0
   -7.5898    0.4028    2.2087 O   0  0  0  0  0  0  0  0  0  0  0  0
   -0.9450    1.4671    0.0254 C   0  0  0  0  0  0  0  0  0  0  0  0
    0.4207    1.1607   -0.0401 C   0  0  0  0  0  0  0  0  0  0  0  0
    4.6471   -1.1176    0.9811 N   0  0  0  0  0  0  0  0  0  0  0  0
    9.6333    2.5211    0.8380 H   0  0  0  0  0  0  0  0  0  0  0  0
    9.4051    2.3402   -0.9139 H   0  0  0  0  0  0  0  0  0  0  0  0
    7.8868    0.5292   -1.6823 H   0  0  0  0  0  0  0  0  0  0  0  0
    6.4369   -1.3430   -2.3276 H   0  0  0  0  0  0  0  0  0  0  0  0
    3.8009   -0.6018   -1.6275 H   0  0  0  0  0  0  0  0  0  0  0  0
    4.2004   -2.2248   -2.1909 H   0  0  0  0  0  0  0  0  0  0  0  0
    4.4631   -3.0434    0.0946 H   0  0  0  0  0  0  0  0  0  0  0  0
    2.1350   -2.5317   -0.7100 H   0  0  0  0  0  0  0  0  0  0  0  0
    2.3150   -2.3570    1.0866 H   0  0  0  0  0  0  0  0  0  0  0  0
    2.8780    0.2784   -0.1133 H   0  0  0  0  0  0  0  0  0  0  0  0
    0.1475   -2.1953    0.3018 H   0  0  0  0  0  0  0  0  0  0  0  0
   -2.1680   -1.6306    0.4083 H   0  0  0  0  0  0  0  0  0  0  0  0
   -4.1077   -1.1011    0.5199 H   0  0  0  0  0  0  0  0  0  0  0  0
   -5.7170    1.4364    0.3625 H   0  0  0  0  0  0  0  0  0  0  0  0
   -6.0014   -0.1439   -1.6232 H   0  0  0  0  0  0  0  0  0  0  0  0
   -6.2494   -1.4775   -0.4637 H   0  0  0  0  0  0  0  0  0  0  0  0
   -8.3876   -0.3940    0.2432 H   0  0  0  0  0  0  0  0  0  0  0  0
   -8.3012   -0.6668   -1.5668 H   0  0  0  0  0  0  0  0  0  0  0  0
   -9.5996    2.8175   -1.1927 H   0  0  0  0  0  0  0  0  0  0  0  0
   -8.1317   -0.2287    2.8033 H   0  0  0  0  0  0  0  0  0  0  0  0
   -1.2535    2.5072   -0.0533 H   0  0  0  0  0  0  0  0  0  0  0  0
    1.1517    1.9475   -0.1667 H   0  0  0  0  0  0  0  0  0  0  0  0
    4.2159   -1.0657    1.9389 H   0  0  0  0  0  0  0  0  0  0  0  0
  1  2  1  0
  2  3  2  0
  3  4  1  0
  4  5  2  0
  4  6  1  0
  6  7  2  0
  7  8  1  0
  7  9  1  0
  9 10  1  0
 10 11  1  0
 11 12  1  0
 12 13  1  0
 13 14  1  0
 14 15  2  0
 15 16  1  0
 16 17  2  0
 17 18  1  0
 18 19  2  0
 18 20  1  0
 20 21  1  0
 21 22  1  0
 22 23  1  0
 23 24  1  0
 24 25  2  0
 24 26  1  0
 21 27  1  0
 27 28  2  0
 27 29  1  0
 17 30  1  0
 30 31  2  0
 11 32  1  0
  8  2  1  0
 31 14  1  0
 32  6  1  0
  1 33  1  0
  1 34  1  0
  8 35  1  0
  9 36  1  0
 10 37  1  0
 10 38  1  0
 11 39  1  1
 12 40  1  0
 12 41  1  0
 13 42  1  0
 15 43  1  0
 16 44  1  0
 20 45  1  0
 21 46  1  6
 22 47  1  0
 22 48  1  0
 23 49  1  0
 23 50  1  0
 26 51  1  0
 29 52  1  0
 30 53  1  0
 31 54  1  0
 32 55  1  0
M  END
$$$$

     RDKit          3D

 55 57  0  0  0  0  0  0  0  0999 V2000
    8.7650   -1.9432   -1.3666 N   0  0  0  0  0  0  0  0  0  0  0  0
    7.6456   -1.1005   -1.0453 C   0  0  0  0  0  0  0  0  0  0  0  0
    7.1892   -0.1939   -1.9308 N   0  0  0  0  0  0  0  0  0  0  0  0
    6.1418    0.5868   -1.6156 C   0  0  0  0  0  0  0  0  0  0  0  0
    5.6737    1.4522   -2.4074 O   0  0  0  0  0  0  0  0  0  0  0  0
    5.5204    0.4710   -0.3831 C   0  0  0  0  0  0  0  0  0  0  0  0
    6.0118   -0.4631    0.4945 C   0  0  0  0  0  0  0  0  0  0  0  0
    7.0669   -1.2370    0.1549 N   0  0  0  0  0  0  0  0  0  0  0  0
    5.3928   -0.6062    1.7698 N   0  0  0  0  0  0  0  0  0  0  0  0
    4.0107   -0.1881    1.8944 C   0  0  0  0  0  0  0  0  0  0  0  0
    3.7555    1.1321    1.2300 C   0  0  2  0  0  0  0  0  0  0  0  0
    2.2681    1.2602    0.9655 C   0  0  0  0  0  0  0  0  0  0  0  0
    1.8440    0.1981    0.1007 N   0  0  0  0  0  0  0  0  0  0  0  0
    0.4820    0.1037   -0.2690 C   0  0  0  0  0  0  0  0  0  0  0  0
    0.0258   -0.8888   -1.1112 C   0  0  0  0  0  0  0  0  0  0  0  0
   -1.2972   -0.9731   -1.4653 C   0  0  0  0  0  0  0  0  0  0  0  0
   -2.2622   -0.0646   -0.9983 C   0  0  0  0  0  0  0  0  0  0  0  0
   -3.6410   -0.1816   -1.3948 C   0  0  0  0  0  0  0  0  0  0  0  0
   -3.9746   -1.0333   -2.2527 O   0  0  0  0  0  0  0  0  0  0  0  0
   -4.6345    0.6471   -0.8349 N   0  0  0  0  0  0  0  0  0  0  0  0
   -6.0143    0.5602   -1.2052 C   0  0  1  0  0  0  0  0  0  0  0  0
   -6.9299    0.2082   -0.1021 C   0  0  0  0  0  0  0  0  0  0  0  0
   -6.7886   -1.0760    0.5986 C   0  0  0  0  0  0  0  0  0  0  0  0
   -5.5876   -1.3695    1.3594 C   0  0  0  0  0  0  0  0  0  0  0  0
   -4.6938   -0.5503    1.5885 O   0  0  0  0  0  0  0  0  0  0  0  0
   -5.3674   -2.6567    1.8994 O   0  0  0  0  0  0  0  0  0  0  0  0
   -6.4264    1.8838   -1.7421 C   0  0  0  0  0  0  0  0  0  0  0  0
   -5.6185    2.8353   -1.8123 O   0  0  0  0  0  0  0  0  0  0  0  0
   -7.7231    2.0885   -2.1780 O   0  0  0  0  0  0  0  0  0  0  0  0
   -1.7985    0.9234   -0.1578 C   0  0  0  0  0  0  0  0  0  0  0  0
   -0.4660    0.9943    0.1883 C   0  0  0  0  0  0  0  0  0  0  0  0
    4.4168    1.2804   -0.0277 N   0  0  0  0  0  0  0  0  0  0  0  0
    9.7019   -1.5228   -1.5465 H   0  0  0  0  0  0  0  0  0  0  0  0
    8.5996   -2.9686   -1.4100 H   0  0  0  0  0  0  0  0  0  0  0  0
    7.4100   -1.9403    0.8602 H   0  0  0  0  0  0  0  0  0  0  0  0
    5.9142   -0.9946    2.5723 H   0  0  0  0  0  0  0  0  0  0  0  0
    3.3952   -0.9903    1.4857 H   0  0  0  0  0  0  0  0  0  0  0  0
    3.7173   -0.0813    2.9649 H   0  0  0  0  0  0  0  0  0  0  0  0
    4.0730    1.9188    1.9649 H   0  0  0  0  0  0  0  0  0  0  0  0
    1.7760    1.1296    1.9679 H   0  0  0  0  0  0  0  0  0  0  0  0
    2.0139    2.2466    0.5228 H   0  0  0  0  0  0  0  0  0  0  0  0
    2.5215   -0.4906   -0.2543 H   0  0  0  0  0  0  0  0  0  0  0  0
    0.7636   -1.6106   -1.4884 H   0  0  0  0  0  0  0  0  0  0  0  0
   -1.6644   -1.7458   -2.1239 H   0  0  0  0  0  0  0  0  0  0  0  0
   -4.3679    1.3753   -0.1392 H   0  0  0  0  0  0  0  0  0  0  0  0
   -6.1450   -0.1418   -2.0915 H   0  0  0  0  0  0  0  0  0  0  0  0
   -6.9422    1.0813    0.6135 H   0  0  0  0  0  0  0  0  0  0  0  0
   -7.9857    0.2296   -0.5380 H   0  0  0  0  0  0  0  0  0  0  0  0
   -7.6624   -1.1178    1.3431 H   0  0  0  0  0  0  0  0  0  0  0  0
   -7.0722   -1.9559   -0.0802 H   0  0  0  0  0  0  0  0  0  0  0  0
   -4.3972   -2.9699    2.0376 H   0  0  0  0  0  0  0  0  0  0  0  0
   -8.1782    2.9939   -2.1430 H   0  0  0  0  0  0  0  0  0  0  0  0
   -2.4504    1.6746    0.2589 H   0  0  0  0  0  0  0  0  0  0  0  0
   -0.0891    1.7770    0.8563 H   0  0  0  0  0  0  0  0  0  0  0  0
    4.0819    2.0043   -0.7108 H   0  0  0  0  0  0  0  0  0  0  0  0
  1  2  1  0
  2  3  2  0
  3  4  1  0
  4  5  2  0
  4  6  1  0
  6  7  2  0
  7  8  1  0
  7  9  1  0
  9 10  1  0
 10 11  1  0
 11 12  1  0
 12 13  1  0
 13 14  1  0
 14 15  2  0
 15 16  1  0
 16 17  2  0
 17 18  1  0
 18 19  2  0
 18 20  1  0
 20 21  1  0
 21 22  1  0
 22 23  1  0
 23 24  1  0
 24 25  2  0
 24 26  1  0
 21 27  1  0
 27 28  2  0
 27 29  1  0
 17 30  1  0
 30 31  2  0
 11 32  1  0
  8  2  1  0
 31 14  1  0
 32  6  1  0
  1 33  1  0
  1 34  1  0
  8 35  1  0
  9 36  1  0
 10 37  1  0
 10 38  1  0
 11 39  1  1
 12 40  1  0
 12 41  1  0
 13 42  1  0
 15 43  1  0
 16 44  1  0
 20 45  1  0
 21 46  1  6
 22 47  1  0
 22 48  1  0
 23 49  1  0
 23 50  1  0
 26 51  1  0
 29 52  1  0
 30 53  1  0
 31 54  1  0
 32 55  1  0
M  END
$$$$

     RDKit          3D

 55 57  0  0  0  0  0  0  0  0999 V2000
    8.2300    3.0092   -0.7248 N   0  0  0  0  0  0  0  0  0  0  0  0
    7.4803    1.9737   -0.1133 C   0  0  0  0  0  0  0  0  0  0  0  0
    7.5648    1.7180    1.2044 N   0  0  0  0  0  0  0  0  0  0  0  0
    6.8635    0.7470    1.7808 C   0  0  0  0  0  0  0  0  0  0  0  0
    6.9032    0.4648    3.0069 O   0  0  0  0  0  0  0  0  0  0  0  0
    6.0029   -0.0488    1.0168 C   0  0  0  0  0  0  0  0  0  0  0  0
    5.9472    0.2473   -0.3278 C   0  0  0  0  0  0  0  0  0  0  0  0
    6.6671    1.2377   -0.8962 N   0  0  0  0  0  0  0  0  0  0  0  0
    5.0672   -0.5655   -1.1244 N   0  0  0  0  0  0  0  0  0  0  0  0
    4.8317   -1.9086   -0.6338 C   0  0  0  0  0  0  0  0  0  0  0  0
    4.3137   -1.8297    0.7862 C   0  0  2  0  0  0  0  0  0  0  0  0
    2.9425   -1.2032    0.8057 C   0  0  0  0  0  0  0  0  0  0  0  0
    2.0155   -1.9786    0.0265 N   0  0  0  0  0  0  0  0  0  0  0  0
    0.6431   -1.6486   -0.1481 C   0  0  0  0  0  0  0  0  0  0  0  0
    0.0611   -0.5603    0.4794 C   0  0  0  0  0  0  0  0  0  0  0  0
   -1.2838   -0.2504    0.2914 C   0  0  0  0  0  0  0  0  0  0  0  0
   -2.0930   -1.0104   -0.5252 C   0  0  0  0  0  0  0  0  0  0  0  0
   -3.5149   -0.7057   -0.7374 C   0  0  0  0  0  0  0  0  0  0  0  0
   -4.1008   -1.3713   -1.6583 O   0  0  0  0  0  0  0  0  0  0  0  0
   -4.2099    0.2551    0.0144 N   0  0  0  0  0  0  0  0  0  0  0  0
   -5.6382    0.4918   -0.2746 C   0  0  1  0  0  0  0  0  0  0  0  0
   -6.4717   -0.0442    0.8306 C   0  0  0  0  0  0  0  0  0  0  0  0
   -7.9289    0.1825    0.6422 C   0  0  0  0  0  0  0  0  0  0  0  0
   -8.3689    1.5926    0.6962 C   0  0  0  0  0  0  0  0  0  0  0  0
   -9.4301    2.0005    0.1675 O   0  0  0  0  0  0  0  0  0  0  0  0
   -7.5763    2.5115    1.3664 O   0  0  0  0  0  0  0  0  0  0  0  0
   -5.8320    1.8611   -0.7105 C   0  0  0  0  0  0  0  0  0  0  0  0
   -5.0277    2.7612   -0.3724 O   0  0  0  0  0  0  0  0  0  0  0  0
   -6.9025    2.2049   -1.5146 O   0  0  0  0  0  0  0  0  0  0  0  0
   -1.4970   -2.0995   -1.1493 C   0  0  0  0  0  0  0  0  0  0  0  0
   -0.1692   -2.4040   -0.9625 C   0  0  0  0  0  0  0  0  0  0  0  0
    5.2405   -1.0861    1.5900 N   0  0  0  0  0  0  0  0  0  0  0  0
    7.9120    3.4592   -1.6252 H   0  0  0  0  0  0  0  0  0  0  0  0
    9.1182    3.3655   -0.3119 H   0  0  0  0  0  0  0  0  0  0  0  0
    6.5633    1.3975   -1.9314 H   0  0  0  0  0  0  0  0  0  0  0  0
    4.6503   -0.1854   -1.9820 H   0  0  0  0  0  0  0  0  0  0  0  0
    5.8201   -2.4453   -0.5493 H   0  0  0  0  0  0  0  0  0  0  0  0
    4.1472   -2.4451   -1.3110 H   0  0  0  0  0  0  0  0  0  0  0  0
    4.2312   -2.8610    1.2007 H   0  0  0  0  0  0  0  0  0  0  0  0
    2.5968   -0.9980    1.8249 H   0  0  0  0  0  0  0  0  0  0  0  0
    3.0464   -0.2103    0.3064 H   0  0  0  0  0  0  0  0  0  0  0  0
    2.3674   -2.8421   -0.4396 H   0  0  0  0  0  0  0  0  0  0  0  0
    0.6416    0.0660    1.1250 H   0  0  0  0  0  0  0  0  0  0  0  0
   -1.7136    0.6109    0.7980 H   0  0  0  0  0  0  0  0  0  0  0  0
   -3.7467    0.7995    0.7640 H   0  0  0  0  0  0  0  0  0  0  0  0
   -5.8581   -0.1850   -1.1700 H   0  0  0  0  0  0  0  0  0  0  0  0
   -6.1595    0.3947    1.8364 H   0  0  0  0  0  0  0  0  0  0  0  0
   -6.3124   -1.1464    0.9278 H   0  0  0  0  0  0  0  0  0  0  0  0
   -8.1603   -0.1801   -0.4117 H   0  0  0  0  0  0  0  0  0  0  0  0
   -8.5600   -0.4687    1.2951 H   0  0  0  0  0  0  0  0  0  0  0  0
   -7.8476    3.4883    1.3758 H   0  0  0  0  0  0  0  0  0  0  0  0
   -6.9600    3.0953   -2.0087 H   0  0  0  0  0  0  0  0  0  0  0  0
   -2.1365   -2.7003   -1.7942 H   0  0  0  0  0  0  0  0  0  0  0  0
    0.2621   -3.2549   -1.4605 H   0  0  0  0  0  0  0  0  0  0  0  0
    5.3686   -1.2982    2.6124 H   0  0  0  0  0  0  0  0  0  0  0  0
  1  2  1  0
  2  3  2  0
  3  4  1  0
  4  5  2  0
  4  6  1  0
  6  7  2  0
  7  8  1  0
  7  9  1  0
  9 10  1  0
 10 11  1  0
 11 12  1  0
 12 13  1  0
 13 14  1  0
 14 15  2  0
 15 16  1  0
 16 17  2  0
 17 18  1  0
 18 19  2  0
 18 20  1  0
 20 21  1  0
 21 22  1  0
 22 23  1  0
 23 24  1  0
 24 25  2  0
 24 26  1  0
 21 27  1  0
 27 28  2  0
 27 29  1  0
 17 30  1  0
 30 31  2  0
 11 32  1  0
  8  2  1  0
 31 14  1  0
 32  6  1  0
  1 33  1  0
  1 34  1  0
  8 35  1  0
  9 36  1  0
 10 37  1  0
 10 38  1  0
 11 39  1  1
 12 40  1  0
 12 41  1  0
 13 42  1  0
 15 43  1  0
 16 44  1  0
 20 45  1  0
 21 46  1  6
 22 47  1  0
 22 48  1  0
 23 49  1  0
 23 50  1  0
 26 51  1  0
 29 52  1  0
 30 53  1  0
 31 54  1  0
 32 55  1  0
M  END
$$$$

     RDKit          3D

 55 57  0  0  0  0  0  0  0  0999 V2000
   -8.1110   -3.0440    1.1082 N   0  0  0  0  0  0  0  0  0  0  0  0
   -7.2596   -2.1103    0.4203 C   0  0  0  0  0  0  0  0  0  0  0  0
   -7.3975   -1.8763   -0.8967 N   0  0  0  0  0  0  0  0  0  0  0  0
   -6.5753   -0.9908   -1.4864 C   0  0  0  0  0  0  0  0  0  0  0  0
   -6.6292   -0.7073   -2.7125 O   0  0  0  0  0  0  0  0  0  0  0  0
   -5.5893   -0.3155   -0.7638 C   0  0  0  0  0  0  0  0  0  0  0  0
   -5.4792   -0.5814    0.5796 C   0  0  0  0  0  0  0  0  0  0  0  0
   -6.3146   -1.4717    1.1454 N   0  0  0  0  0  0  0  0  0  0  0  0
   -4.4727    0.1046    1.3445 N   0  0  0  0  0  0  0  0  0  0  0  0
   -4.0510    1.3827    0.7897 C   0  0  0  0  0  0  0  0  0  0  0  0
   -3.5742    1.0868   -0.6308 C   0  0  2  0  0  0  0  0  0  0  0  0
   -2.9694    2.3209   -1.2605 C   0  0  0  0  0  0  0  0  0  0  0  0
   -1.8398    2.8411   -0.5551 N   0  0  0  0  0  0  0  0  0  0  0  0
   -0.5856    2.2136   -0.4087 C   0  0  0  0  0  0  0  0  0  0  0  0
    0.3914    2.7280    0.4413 C   0  0  0  0  0  0  0  0  0  0  0  0
    1.6242    2.1603    0.6011 C   0  0  0  0  0  0  0  0  0  0  0  0
    1.9633    1.0100   -0.1011 C   0  0  0  0  0  0  0  0  0  0  0  0
    3.2980    0.4073    0.0755 C   0  0  0  0  0  0  0  0  0  0  0  0
    4.0856    0.9814    0.8781 O   0  0  0  0  0  0  0  0  0  0  0  0
    3.6998   -0.7574   -0.6104 N   0  0  0  0  0  0  0  0  0  0  0  0
    5.0492   -1.3290   -0.4012 C   0  0  1  0  0  0  0  0  0  0  0  0
    6.0605   -0.4866   -1.0538 C   0  0  0  0  0  0  0  0  0  0  0  0
    7.4673   -0.9173   -0.8907 C   0  0  0  0  0  0  0  0  0  0  0  0
    8.0167   -0.8093    0.4779 C   0  0  0  0  0  0  0  0  0  0  0  0
    8.9716   -1.5022    0.9033 O   0  0  0  0  0  0  0  0  0  0  0  0
    7.4204    0.1359    1.3305 O   0  0  0  0  0  0  0  0  0  0  0  0
    5.2035   -1.7776    0.9751 C   0  0  0  0  0  0  0  0  0  0  0  0
    4.2977   -1.4374    1.8315 O   0  0  0  0  0  0  0  0  0  0  0  0
    6.2074   -2.5467    1.5115 O   0  0  0  0  0  0  0  0  0  0  0  0
    1.0082    0.4930   -0.9429 C   0  0  0  0  0  0  0  0  0  0  0  0
   -0.2385    1.0765   -1.0976 C   0  0  0  0  0  0  0  0  0  0  0  0
   -4.7222    0.6193   -1.3741 N   0  0  0  0  0  0  0  0  0  0  0  0
   -8.2400   -4.0228    0.7735 H   0  0  0  0  0  0  0  0  0  0  0  0
   -8.6336   -2.7707    1.9749 H   0  0  0  0  0  0  0  0  0  0  0  0
   -6.2107   -1.6554    2.1670 H   0  0  0  0  0  0  0  0  0  0  0  0
   -4.1208   -0.3242    2.2029 H   0  0  0  0  0  0  0  0  0  0  0  0
   -3.2036    1.8099    1.3471 H   0  0  0  0  0  0  0  0  0  0  0  0
   -4.9374    2.0471    0.7596 H   0  0  0  0  0  0  0  0  0  0  0  0
   -2.8729    0.2418   -0.5296 H   0  0  0  0  0  0  0  0  0  0  0  0
   -2.5815    1.9728   -2.2642 H   0  0  0  0  0  0  0  0  0  0  0  0
   -3.7353    3.0573   -1.4932 H   0  0  0  0  0  0  0  0  0  0  0  0
   -1.9650    3.7926   -0.0990 H   0  0  0  0  0  0  0  0  0  0  0  0
    0.1206    3.6285    0.9871 H   0  0  0  0  0  0  0  0  0  0  0  0
    2.3620    2.5952    1.2770 H   0  0  0  0  0  0  0  0  0  0  0  0
    3.0458   -1.2128   -1.2628 H   0  0  0  0  0  0  0  0  0  0  0  0
    5.0207   -2.3028   -1.0166 H   0  0  0  0  0  0  0  0  0  0  0  0
    5.8339   -0.4842   -2.1645 H   0  0  0  0  0  0  0  0  0  0  0  0
    6.0077    0.5957   -0.7350 H   0  0  0  0  0  0  0  0  0  0  0  0
    7.6263   -1.9915   -1.2201 H   0  0  0  0  0  0  0  0  0  0  0  0
    8.1494   -0.3516   -1.6049 H   0  0  0  0  0  0  0  0  0  0  0  0
    7.8062    0.4007    2.2142 H   0  0  0  0  0  0  0  0  0  0  0  0
    6.1776   -3.0652    2.3577 H   0  0  0  0  0  0  0  0  0  0  0  0
    1.2354   -0.4169   -1.5184 H   0  0  0  0  0  0  0  0  0  0  0  0
   -0.9059    0.6041   -1.7792 H   0  0  0  0  0  0  0  0  0  0  0  0
   -4.9344    0.9521   -2.3581 H   0  0  0  0  0  0  0  0  0  0  0  0
  1  2  1  0
  2  3  2  0
  3  4  1  0
  4  5  2  0
  4  6  1  0
  6  7  2  0
  7  8  1  0
  7  9  1  0
  9 10  1  0
 10 11  1  0
 11 12  1  0
 12 13  1  0
 13 14  1  0
 14 15  2  0
 15 16  1  0
 16 17  2  0
 17 18  1  0
 18 19  2  0
 18 20  1  0
 20 21  1  0
 21 22  1  0
 22 23  1  0
 23 24  1  0
 24 25  2  0
 24 26  1  0
 21 27  1  0
 27 28  2  0
 27 29  1  0
 17 30  1  0
 30 31  2  0
 11 32  1  0
  8  2  1  0
 31 14  1  0
 32  6  1  0
  1 33  1  0
  1 34  1  0
  8 35  1  0
  9 36  1  0
 10 37  1  0
 10 38  1  0
 11 39  1  1
 12 40  1  0
 12 41  1  0
 13 42  1  0
 15 43  1  0
 16 44  1  0
 20 45  1  0
 21 46  1  6
 22 47  1  0
 22 48  1  0
 23 49  1  0
 23 50  1  0
 26 51  1  0
 29 52  1  0
 30 53  1  0
 31 54  1  0
 32 55  1  0
M  END
$$$$

     RDKit          3D

 55 57  0  0  0  0  0  0  0  0999 V2000
   -9.5363   -1.0687    0.4484 N   0  0  0  0  0  0  0  0  0  0  0  0
   -8.1642   -1.1478    0.0740 C   0  0  0  0  0  0  0  0  0  0  0  0
   -7.7910   -1.3535   -1.2018 N   0  0  0  0  0  0  0  0  0  0  0  0
   -6.4931   -1.4265   -1.5815 C   0  0  0  0  0  0  0  0  0  0  0  0
   -6.1515   -1.6159   -2.7560 O   0  0  0  0  0  0  0  0  0  0  0  0
   -5.5784   -1.2711   -0.5423 C   0  0  0  0  0  0  0  0  0  0  0  0
   -5.9507   -1.0616    0.7646 C   0  0  0  0  0  0  0  0  0  0  0  0
   -7.2475   -1.0010    1.0650 N   0  0  0  0  0  0  0  0  0  0  0  0
   -4.9273   -0.9195    1.7379 N   0  0  0  0  0  0  0  0  0  0  0  0
   -3.5265   -0.8080    1.4608 C   0  0  0  0  0  0  0  0  0  0  0  0
   -3.1938   -0.6783   -0.0063 C   0  0  2  0  0  0  0  0  0  0  0  0
   -3.2037    0.7751   -0.3653 C   0  0  0  0  0  0  0  0  0  0  0  0
   -2.2914    1.6105    0.3375 N   0  0  0  0  0  0  0  0  0  0  0  0
   -0.8899    1.5148    0.1615 C   0  0  0  0  0  0  0  0  0  0  0  0
   -0.0523    2.2554    1.0032 C   0  0  0  0  0  0  0  0  0  0  0  0
    1.3051    2.1909    0.8349 C   0  0  0  0  0  0  0  0  0  0  0  0
    1.9163    1.4263   -0.1322 C   0  0  0  0  0  0  0  0  0  0  0  0
    3.3674    1.4286   -0.2510 C   0  0  0  0  0  0  0  0  0  0  0  0
    4.0055    2.4653    0.0538 O   0  0  0  0  0  0  0  0  0  0  0  0
    4.1039    0.3043   -0.7002 N   0  0  0  0  0  0  0  0  0  0  0  0
    5.5644    0.2871   -0.8368 C   0  0  1  0  0  0  0  0  0  0  0  0
    6.1999   -0.4025    0.3198 C   0  0  0  0  0  0  0  0  0  0  0  0
    7.6953   -0.4330    0.1613 C   0  0  0  0  0  0  0  0  0  0  0  0
    8.2476   -1.0730    1.3846 C   0  0  0  0  0  0  0  0  0  0  0  0
    7.8604   -0.6447    2.5015 O   0  0  0  0  0  0  0  0  0  0  0  0
    9.1519   -2.1059    1.3207 O   0  0  0  0  0  0  0  0  0  0  0  0
    5.8973   -0.1891   -2.1729 C   0  0  0  0  0  0  0  0  0  0  0  0
    4.9519   -0.5433   -2.9539 O   0  0  0  0  0  0  0  0  0  0  0  0
    7.1787   -0.2726   -2.6307 O   0  0  0  0  0  0  0  0  0  0  0  0
    1.0861    0.6975   -0.9582 C   0  0  0  0  0  0  0  0  0  0  0  0
   -0.3028    0.7473   -0.8071 C   0  0  0  0  0  0  0  0  0  0  0  0
   -4.1978   -1.3230   -0.8416 N   0  0  0  0  0  0  0  0  0  0  0  0
  -10.1295   -0.2695    0.0943 H   0  0  0  0  0  0  0  0  0  0  0  0
   -9.9970   -1.7750    1.0669 H   0  0  0  0  0  0  0  0  0  0  0  0
   -7.5369   -0.8433    2.0669 H   0  0  0  0  0  0  0  0  0  0  0  0
   -5.2158   -0.8921    2.7400 H   0  0  0  0  0  0  0  0  0  0  0  0
   -3.0231   -1.7302    1.8894 H   0  0  0  0  0  0  0  0  0  0  0  0
   -3.1212    0.0421    2.0692 H   0  0  0  0  0  0  0  0  0  0  0  0
   -2.2498   -1.2129   -0.1578 H   0  0  0  0  0  0  0  0  0  0  0  0
   -3.0218    0.9282   -1.4728 H   0  0  0  0  0  0  0  0  0  0  0  0
   -4.2407    1.2019   -0.2349 H   0  0  0  0  0  0  0  0  0  0  0  0
   -2.6800    2.3401    1.0228 H   0  0  0  0  0  0  0  0  0  0  0  0
   -0.5326    2.8562    1.7584 H   0  0  0  0  0  0  0  0  0  0  0  0
    1.9433    2.7553    1.4801 H   0  0  0  0  0  0  0  0  0  0  0  0
    3.6115   -0.5625   -0.9589 H   0  0  0  0  0  0  0  0  0  0  0  0
    5.9254    1.3712   -0.7586 H   0  0  0  0  0  0  0  0  0  0  0  0
    5.7740   -1.4184    0.4626 H   0  0  0  0  0  0  0  0  0  0  0  0
    6.0088    0.2503    1.2179 H   0  0  0  0  0  0  0  0  0  0  0  0
    8.0164   -1.0627   -0.7222 H   0  0  0  0  0  0  0  0  0  0  0  0
    8.1187    0.5785   -0.0359 H   0  0  0  0  0  0  0  0  0  0  0  0
    9.1563   -2.8487    2.0282 H   0  0  0  0  0  0  0  0  0  0  0  0
    7.4430   -0.6116   -3.5692 H   0  0  0  0  0  0  0  0  0  0  0  0
    1.5157    0.0883   -1.7224 H   0  0  0  0  0  0  0  0  0  0  0  0
   -0.9188    0.1760   -1.4759 H   0  0  0  0  0  0  0  0  0  0  0  0
   -3.8789   -1.8315   -1.6795 H   0  0  0  0  0  0  0  0  0  0  0  0
  1  2  1  0
  2  3  2  0
  3  4  1  0
  4  5  2  0
  4  6  1  0
  6  7  2  0
  7  8  1  0
  7  9  1  0
  9 10  1  0
 10 11  1  0
 11 12  1  0
 12 13  1  0
 13 14  1  0
 14 15  2  0
 15 16  1  0
 16 17  2  0
 17 18  1  0
 18 19  2  0
 18 20  1  0
 20 21  1  0
 21 22  1  0
 22 23  1  0
 23 24  1  0
 24 25  2  0
 24 26  1  0
 21 27  1  0
 27 28  2  0
 27 29  1  0
 17 30  1  0
 30 31  2  0
 11 32  1  0
  8  2  1  0
 31 14  1  0
 32  6  1  0
  1 33  1  0
  1 34  1  0
  8 35  1  0
  9 36  1  0
 10 37  1  0
 10 38  1  0
 11 39  1  1
 12 40  1  0
 12 41  1  0
 13 42  1  0
 15 43  1  0
 16 44  1  0
 20 45  1  0
 21 46  1  6
 22 47  1  0
 22 48  1  0
 23 49  1  0
 23 50  1  0
 26 51  1  0
 29 52  1  0
 30 53  1  0
 31 54  1  0
 32 55  1  0
M  END
$$$$

     RDKit          3D

 55 57  0  0  0  0  0  0  0  0999 V2000
    9.9102   -1.5795   -0.5444 N   0  0  0  0  0  0  0  0  0  0  0  0
    8.5357   -1.2665   -0.5802 C   0  0  0  0  0  0  0  0  0  0  0  0
    7.6326   -2.1448   -1.0712 N   0  0  0  0  0  0  0  0  0  0  0  0
    6.3217   -1.8585   -1.1116 C   0  0  0  0  0  0  0  0  0  0  0  0
    5.5127   -2.7100   -1.5789 O   0  0  0  0  0  0  0  0  0  0  0  0
    5.9020   -0.6274   -0.6365 C   0  0  0  0  0  0  0  0  0  0  0  0
    6.8443    0.2617   -0.1372 C   0  0  0  0  0  0  0  0  0  0  0  0
    8.1408   -0.0588   -0.1114 N   0  0  0  0  0  0  0  0  0  0  0  0
    6.3805    1.5303    0.3462 N   0  0  0  0  0  0  0  0  0  0  0  0
    5.0061    1.5633    0.8243 C   0  0  0  0  0  0  0  0  0  0  0  0
    4.1364    1.0552   -0.3074 C   0  0  2  0  0  0  0  0  0  0  0  0
    2.7210    0.9794    0.2584 C   0  0  0  0  0  0  0  0  0  0  0  0
    1.8577    0.5058   -0.8032 N   0  0  0  0  0  0  0  0  0  0  0  0
    0.4737    0.2701   -0.4887 C   0  0  0  0  0  0  0  0  0  0  0  0
    0.0313    0.3448    0.8183 C   0  0  0  0  0  0  0  0  0  0  0  0
   -1.2888    0.1285    1.1435 C   0  0  0  0  0  0  0  0  0  0  0  0
   -2.2504   -0.1778    0.1696 C   0  0  0  0  0  0  0  0  0  0  0  0
   -3.6288   -0.4150    0.5724 C   0  0  0  0  0  0  0  0  0  0  0  0
   -3.8693   -0.9195    1.6925 O   0  0  0  0  0  0  0  0  0  0  0  0
   -4.6819   -0.0687   -0.3103 N   0  0  0  0  0  0  0  0  0  0  0  0
   -6.0644   -0.3165    0.1136 C   0  0  1  0  0  0  0  0  0  0  0  0
   -6.6936    1.0157    0.4562 C   0  0  0  0  0  0  0  0  0  0  0  0
   -8.1010    0.8931    0.9104 C   0  0  0  0  0  0  0  0  0  0  0  0
   -8.3205    0.0715    2.1071 C   0  0  0  0  0  0  0  0  0  0  0  0
   -9.5364   -0.0524    2.4799 O   0  0  0  0  0  0  0  0  0  0  0  0
   -7.3832   -0.5709    2.8630 O   0  0  0  0  0  0  0  0  0  0  0  0
   -6.7927   -1.0859   -0.9052 C   0  0  0  0  0  0  0  0  0  0  0  0
   -6.2622   -1.3874   -1.9774 O   0  0  0  0  0  0  0  0  0  0  0  0
   -8.0861   -1.4877   -0.6781 O   0  0  0  0  0  0  0  0  0  0  0  0
   -1.7888   -0.2462   -1.1275 C   0  0  0  0  0  0  0  0  0  0  0  0
   -0.4623   -0.0297   -1.4544 C   0  0  0  0  0  0  0  0  0  0  0  0
    4.5392   -0.2873   -0.6626 N   0  0  0  0  0  0  0  0  0  0  0  0
   10.3014   -2.4515   -0.9939 H   0  0  0  0  0  0  0  0  0  0  0  0
   10.6036   -0.9627   -0.0694 H   0  0  0  0  0  0  0  0  0  0  0  0
    8.8116    0.6312    0.2708 H   0  0  0  0  0  0  0  0  0  0  0  0
    7.0138    2.3414    0.3381 H   0  0  0  0  0  0  0  0  0  0  0  0
    4.6881    2.5761    1.1005 H   0  0  0  0  0  0  0  0  0  0  0  0
    4.9036    0.8307    1.6732 H   0  0  0  0  0  0  0  0  0  0  0  0
    4.2427    1.7056   -1.1710 H   0  0  0  0  0  0  0  0  0  0  0  0
    2.7205    0.3506    1.1543 H   0  0  0  0  0  0  0  0  0  0  0  0
    2.3681    2.0122    0.5371 H   0  0  0  0  0  0  0  0  0  0  0  0
    2.1845    0.3282   -1.7755 H   0  0  0  0  0  0  0  0  0  0  0  0
    0.7515    0.5835    1.6139 H   0  0  0  0  0  0  0  0  0  0  0  0
   -1.6477    0.1837    2.1822 H   0  0  0  0  0  0  0  0  0  0  0  0
   -4.4997    0.3475   -1.2392 H   0  0  0  0  0  0  0  0  0  0  0  0
   -6.0076   -0.9047    1.0688 H   0  0  0  0  0  0  0  0  0  0  0  0
   -6.6581    1.6250   -0.4885 H   0  0  0  0  0  0  0  0  0  0  0  0
   -6.0357    1.5450    1.1813 H   0  0  0  0  0  0  0  0  0  0  0  0
   -8.5139    1.9273    1.1185 H   0  0  0  0  0  0  0  0  0  0  0  0
   -8.7581    0.5169    0.1004 H   0  0  0  0  0  0  0  0  0  0  0  0
   -7.5705   -1.4392    3.3492 H   0  0  0  0  0  0  0  0  0  0  0  0
   -8.7882   -1.5144   -1.4043 H   0  0  0  0  0  0  0  0  0  0  0  0
   -2.5254   -0.4848   -1.9116 H   0  0  0  0  0  0  0  0  0  0  0  0
   -0.1115   -0.0898   -2.4927 H   0  0  0  0  0  0  0  0  0  0  0  0
    3.7915   -0.9865   -0.9336 H   0  0  0  0  0  0  0  0  0  0  0  0
  1  2  1  0
  2  3  2  0
  3  4  1  0
  4  5  2  0
  4  6  1  0
  6  7  2  0
  7  8  1  0
  7  9  1  0
  9 10  1  0
 10 11  1  0
 11 12  1  0
 12 13  1  0
 13 14  1  0
 14 15  2  0
 15 16  1  0
 16 17  2  0
 17 18  1  0
 18 19  2  0
 18 20  1  0
 20 21  1  0
 21 22  1  0
 22 23  1  0
 23 24  1  0
 24 25  2  0
 24 26  1  0
 21 27  1  0
 27 28  2  0
 27 29  1  0
 17 30  1  0
 30 31  2  0
 11 32  1  0
  8  2  1  0
 31 14  1  0
 32  6  1  0
  1 33  1  0
  1 34  1  0
  8 35  1  0
  9 36  1  0
 10 37  1  0
 10 38  1  0
 11 39  1  6
 12 40  1  0
 12 41  1  0
 13 42  1  0
 15 43  1  0
 16 44  1  0
 20 45  1  0
 21 46  1  1
 22 47  1  0
 22 48  1  0
 23 49  1  0
 23 50  1  0
 26 51  1  0
 29 52  1  0
 30 53  1  0
 31 54  1  0
 32 55  1  0
M  END
$$$$

     RDKit          3D

 55 57  0  0  0  0  0  0  0  0999 V2000
   -8.6637   -2.7215    2.5688 N   0  0  0  0  0  0  0  0  0  0  0  0
   -7.6502   -1.8118    2.1567 C   0  0  0  0  0  0  0  0  0  0  0  0
   -6.9128   -1.1201    3.0467 N   0  0  0  0  0  0  0  0  0  0  0  0
   -5.9603   -0.2643    2.6844 C   0  0  0  0  0  0  0  0  0  0  0  0
   -5.2767    0.3776    3.5282 O   0  0  0  0  0  0  0  0  0  0  0  0
   -5.6807   -0.0441    1.3426 C   0  0  0  0  0  0  0  0  0  0  0  0
   -6.4301   -0.7475    0.4244 C   0  0  0  0  0  0  0  0  0  0  0  0
   -7.3878   -1.6061    0.8548 N   0  0  0  0  0  0  0  0  0  0  0  0
   -6.1735   -0.5504   -0.9527 N   0  0  0  0  0  0  0  0  0  0  0  0
   -4.9761    0.0963   -1.3838 C   0  0  0  0  0  0  0  0  0  0  0  0
   -4.5098    1.1889   -0.4706 C   0  0  2  0  0  0  0  0  0  0  0  0
   -3.0653    1.5506   -0.6855 C   0  0  0  0  0  0  0  0  0  0  0  0
   -2.2180    0.4135   -0.4457 N   0  0  0  0  0  0  0  0  0  0  0  0
   -0.8166    0.5545   -0.5856 C   0  0  0  0  0  0  0  0  0  0  0  0
    0.0261   -0.5152   -0.3251 C   0  0  0  0  0  0  0  0  0  0  0  0
    1.4001   -0.3394   -0.4691 C   0  0  0  0  0  0  0  0  0  0  0  0
    1.9485    0.8609   -0.8616 C   0  0  0  0  0  0  0  0  0  0  0  0
    3.3869    1.0417   -1.0038 C   0  0  0  0  0  0  0  0  0  0  0  0
    3.8120    2.1153   -1.5329 O   0  0  0  0  0  0  0  0  0  0  0  0
    4.3421    0.0969   -0.5891 N   0  0  0  0  0  0  0  0  0  0  0  0
    5.7948    0.2943   -0.7401 C   0  0  1  0  0  0  0  0  0  0  0  0
    6.3046    0.4619    0.6493 C   0  0  0  0  0  0  0  0  0  0  0  0
    7.7639    0.6099    0.8465 C   0  0  0  0  0  0  0  0  0  0  0  0
    8.4554   -0.6592    0.5452 C   0  0  0  0  0  0  0  0  0  0  0  0
    7.7901   -1.7226    0.5040 O   0  0  0  0  0  0  0  0  0  0  0  0
    9.8115   -0.7115    0.3072 O   0  0  0  0  0  0  0  0  0  0  0  0
    6.3981   -0.6809   -1.6190 C   0  0  0  0  0  0  0  0  0  0  0  0
    5.7975   -1.7063   -1.9892 O   0  0  0  0  0  0  0  0  0  0  0  0
    7.6978   -0.4833   -2.0903 O   0  0  0  0  0  0  0  0  0  0  0  0
    1.0695    1.8969   -1.1101 C   0  0  0  0  0  0  0  0  0  0  0  0
   -0.2920    1.7623   -0.9790 C   0  0  0  0  0  0  0  0  0  0  0  0
   -4.6723    0.8618    0.9229 N   0  0  0  0  0  0  0  0  0  0  0  0
   -8.8192   -2.8764    3.5783 H   0  0  0  0  0  0  0  0  0  0  0  0
   -9.2586   -3.2418    1.8947 H   0  0  0  0  0  0  0  0  0  0  0  0
   -7.9385   -2.1237    0.1336 H   0  0  0  0  0  0  0  0  0  0  0  0
   -6.8670   -0.8831   -1.6349 H   0  0  0  0  0  0  0  0  0  0  0  0
   -4.1328   -0.6251   -1.5577 H   0  0  0  0  0  0  0  0  0  0  0  0
   -5.1813    0.5346   -2.4074 H   0  0  0  0  0  0  0  0  0  0  0  0
   -5.1159    2.0966   -0.6858 H   0  0  0  0  0  0  0  0  0  0  0  0
   -2.7393    2.3348    0.0442 H   0  0  0  0  0  0  0  0  0  0  0  0
   -2.8890    2.0278   -1.6927 H   0  0  0  0  0  0  0  0  0  0  0  0
   -2.6605   -0.4984   -0.1692 H   0  0  0  0  0  0  0  0  0  0  0  0
   -0.4127   -1.4531   -0.0181 H   0  0  0  0  0  0  0  0  0  0  0  0
    2.0150   -1.2042   -0.2533 H   0  0  0  0  0  0  0  0  0  0  0  0
    4.0022   -0.7865   -0.1521 H   0  0  0  0  0  0  0  0  0  0  0  0
    5.9536    1.3038   -1.2421 H   0  0  0  0  0  0  0  0  0  0  0  0
    5.8712   -0.3508    1.2961 H   0  0  0  0  0  0  0  0  0  0  0  0
    5.7891    1.3967    1.0469 H   0  0  0  0  0  0  0  0  0  0  0  0
    8.1982    1.4405    0.2464 H   0  0  0  0  0  0  0  0  0  0  0  0
    7.9831    0.8993    1.9156 H   0  0  0  0  0  0  0  0  0  0  0  0
   10.3685   -1.5464    0.4895 H   0  0  0  0  0  0  0  0  0  0  0  0
    8.2641   -1.2362   -2.4082 H   0  0  0  0  0  0  0  0  0  0  0  0
    1.4814    2.8493   -1.4201 H   0  0  0  0  0  0  0  0  0  0  0  0
   -0.9815    2.5954   -1.1801 H   0  0  0  0  0  0  0  0  0  0  0  0
   -4.0433    1.2940    1.6279 H   0  0  0  0  0  0  0  0  0  0  0  0
  1  2  1  0
  2  3  2  0
  3  4  1  0
  4  5  2  0
  4  6  1  0
  6  7  2  0
  7  8  1  0
  7  9  1  0
  9 10  1  0
 10 11  1  0
 11 12  1  0
 12 13  1  0
 13 14  1  0
 14 15  2  0
 15 16  1  0
 16 17  2  0
 17 18  1  0
 18 19  2  0
 18 20  1  0
 20 21  1  0
 21 22  1  0
 22 23  1  0
 23 24  1  0
 24 25  2  0
 24 26  1  0
 21 27  1  0
 27 28  2  0
 27 29  1  0
 17 30  1  0
 30 31  2  0
 11 32  1  0
  8  2  1  0
 31 14  1  0
 32  6  1  0
  1 33  1  0
  1 34  1  0
  8 35  1  0
  9 36  1  0
 10 37  1  0
 10 38  1  0
 11 39  1  6
 12 40  1  0
 12 41  1  0
 13 42  1  0
 15 43  1  0
 16 44  1  0
 20 45  1  0
 21 46  1  6
 22 47  1  0
 22 48  1  0
 23 49  1  0
 23 50  1  0
 26 51  1  0
 29 52  1  0
 30 53  1  0
 31 54  1  0
 32 55  1  0
M  END
$$$$

     RDKit          3D

 55 57  0  0  0  0  0  0  0  0999 V2000
    9.9626    0.6242   -0.3305 N   0  0  0  0  0  0  0  0  0  0  0  0
    8.5902    0.2321   -0.3281 C   0  0  0  0  0  0  0  0  0  0  0  0
    7.9199    0.1783   -1.5030 N   0  0  0  0  0  0  0  0  0  0  0  0
    6.6267   -0.1862   -1.4674 C   0  0  0  0  0  0  0  0  0  0  0  0
    5.9282   -0.2607   -2.5314 O   0  0  0  0  0  0  0  0  0  0  0  0
    5.9683   -0.5011   -0.3095 C   0  0  0  0  0  0  0  0  0  0  0  0
    6.6729   -0.4423    0.8848 C   0  0  0  0  0  0  0  0  0  0  0  0
    7.9767   -0.0716    0.8315 N   0  0  0  0  0  0  0  0  0  0  0  0
    6.0130   -0.7782    2.0939 N   0  0  0  0  0  0  0  0  0  0  0  0
    4.6534   -1.2741    2.1060 C   0  0  0  0  0  0  0  0  0  0  0  0
    3.9243   -0.5497    1.0067 C   0  0  2  0  0  0  0  0  0  0  0  0
    2.4563   -0.7837    0.9424 C   0  0  0  0  0  0  0  0  0  0  0  0
    1.9520   -0.0110   -0.1762 N   0  0  0  0  0  0  0  0  0  0  0  0
    0.5578    0.0207   -0.4044 C   0  0  0  0  0  0  0  0  0  0  0  0
   -0.3206   -0.5709    0.4849 C   0  0  0  0  0  0  0  0  0  0  0  0
   -1.6867   -0.5410    0.2808 C   0  0  0  0  0  0  0  0  0  0  0  0
   -2.1820    0.0896   -0.8304 C   0  0  0  0  0  0  0  0  0  0  0  0
   -3.6204    0.1478   -1.0227 C   0  0  0  0  0  0  0  0  0  0  0  0
   -4.1137   -0.2236   -2.1113 O   0  0  0  0  0  0  0  0  0  0  0  0
   -4.4608    0.6261    0.0194 N   0  0  0  0  0  0  0  0  0  0  0  0
   -5.9238    0.7022   -0.1367 C   0  0  1  0  0  0  0  0  0  0  0  0
   -6.5071    0.1383    1.1114 C   0  0  0  0  0  0  0  0  0  0  0  0
   -8.0003    0.1410    1.1116 C   0  0  0  0  0  0  0  0  0  0  0  0
   -8.6219   -0.6245    0.0314 C   0  0  0  0  0  0  0  0  0  0  0  0
   -8.3348   -0.4426   -1.1694 O   0  0  0  0  0  0  0  0  0  0  0  0
   -9.5905   -1.6246    0.2982 O   0  0  0  0  0  0  0  0  0  0  0  0
   -6.2697    2.1537   -0.2380 C   0  0  0  0  0  0  0  0  0  0  0  0
   -5.3163    2.9802   -0.1177 O   0  0  0  0  0  0  0  0  0  0  0  0
   -7.5436    2.6366   -0.4537 O   0  0  0  0  0  0  0  0  0  0  0  0
   -1.3394    0.6873   -1.7377 C   0  0  0  0  0  0  0  0  0  0  0  0
    0.0413    0.6454   -1.5102 C   0  0  0  0  0  0  0  0  0  0  0  0
    4.5808   -0.8717   -0.2477 N   0  0  0  0  0  0  0  0  0  0  0  0
   10.2792    1.5156    0.0895 H   0  0  0  0  0  0  0  0  0  0  0  0
   10.6500   -0.0104   -0.7691 H   0  0  0  0  0  0  0  0  0  0  0  0
    8.5341   -0.0152    1.7102 H   0  0  0  0  0  0  0  0  0  0  0  0
    6.5099   -0.6719    2.9968 H   0  0  0  0  0  0  0  0  0  0  0  0
    4.1874   -1.2005    3.0933 H   0  0  0  0  0  0  0  0  0  0  0  0
    4.6599   -2.3676    1.8248 H   0  0  0  0  0  0  0  0  0  0  0  0
    4.0609    0.5417    1.2322 H   0  0  0  0  0  0  0  0  0  0  0  0
    1.9800   -0.3933    1.8602 H   0  0  0  0  0  0  0  0  0  0  0  0
    2.1948   -1.8444    0.7449 H   0  0  0  0  0  0  0  0  0  0  0  0
    2.5823    0.5155   -0.8082 H   0  0  0  0  0  0  0  0  0  0  0  0
    0.0767   -1.0703    1.3582 H   0  0  0  0  0  0  0  0  0  0  0  0
   -2.3767   -0.9989    0.9669 H   0  0  0  0  0  0  0  0  0  0  0  0
   -4.0026    0.9236    0.9065 H   0  0  0  0  0  0  0  0  0  0  0  0
   -6.1603    0.1705   -1.0665 H   0  0  0  0  0  0  0  0  0  0  0  0
   -6.1916    0.7842    1.9904 H   0  0  0  0  0  0  0  0  0  0  0  0
   -6.0927   -0.8734    1.3541 H   0  0  0  0  0  0  0  0  0  0  0  0
   -8.3666    1.2108    1.0975 H   0  0  0  0  0  0  0  0  0  0  0  0
   -8.3311   -0.3053    2.0966 H   0  0  0  0  0  0  0  0  0  0  0  0
   -9.6023   -2.4907   -0.2694 H   0  0  0  0  0  0  0  0  0  0  0  0
   -7.6569    3.3493   -1.1830 H   0  0  0  0  0  0  0  0  0  0  0  0
   -1.7569    1.1793   -2.6061 H   0  0  0  0  0  0  0  0  0  0  0  0
    0.6736    1.1240   -2.2419 H   0  0  0  0  0  0  0  0  0  0  0  0
    4.1559   -1.3185   -1.0616 H   0  0  0  0  0  0  0  0  0  0  0  0
  1  2  1  0
  2  3  2  0
  3  4  1  0
  4  5  2  0
  4  6  1  0
  6  7  2  0
  7  8  1  0
  7  9  1  0
  9 10  1  0
 10 11  1  0
 11 12  1  0
 12 13  1  0
 13 14  1  0
 14 15  2  0
 15 16  1  0
 16 17  2  0
 17 18  1  0
 18 19  2  0
 18 20  1  0
 20 21  1  0
 21 22  1  0
 22 23  1  0
 23 24  1  0
 24 25  2  0
 24 26  1  0
 21 27  1  0
 27 28  2  0
 27 29  1  0
 17 30  1  0
 30 31  2  0
 11 32  1  0
  8  2  1  0
 31 14  1  0
 32  6  1  0
  1 33  1  0
  1 34  1  0
  8 35  1  0
  9 36  1  0
 10 37  1  0
 10 38  1  0
 11 39  1  1
 12 40  1  0
 12 41  1  0
 13 42  1  0
 15 43  1  0
 16 44  1  0
 20 45  1  0
 21 46  1  6
 22 47  1  0
 22 48  1  0
 23 49  1  0
 23 50  1  0
 26 51  1  0
 29 52  1  0
 30 53  1  0
 31 54  1  0
 32 55  1  0
M  END
$$$$

     RDKit          3D

 55 57  0  0  0  0  0  0  0  0999 V2000
   -9.0527    2.9183    0.1963 N   0  0  0  0  0  0  0  0  0  0  0  0
   -7.8521    2.2314   -0.1266 C   0  0  0  0  0  0  0  0  0  0  0  0
   -7.3618    2.3377   -1.3716 N   0  0  0  0  0  0  0  0  0  0  0  0
   -6.2243    1.7038   -1.7346 C   0  0  0  0  0  0  0  0  0  0  0  0
   -5.7304    1.7789   -2.8919 O   0  0  0  0  0  0  0  0  0  0  0  0
   -5.6130    0.9514   -0.7532 C   0  0  0  0  0  0  0  0  0  0  0  0
   -6.0952    0.8288    0.5245 C   0  0  0  0  0  0  0  0  0  0  0  0
   -7.2273    1.4864    0.8108 N   0  0  0  0  0  0  0  0  0  0  0  0
   -5.3682    0.0362    1.4440 N   0  0  0  0  0  0  0  0  0  0  0  0
   -4.5239   -1.0528    1.0435 C   0  0  0  0  0  0  0  0  0  0  0  0
   -4.1183   -0.9694   -0.3791 C   0  0  2  0  0  0  0  0  0  0  0  0
   -2.6582   -1.3180   -0.5504 C   0  0  0  0  0  0  0  0  0  0  0  0
   -1.7810   -0.4577    0.1701 N   0  0  0  0  0  0  0  0  0  0  0  0
   -0.3767   -0.6702    0.0941 C   0  0  0  0  0  0  0  0  0  0  0  0
    0.1338   -1.7106   -0.6954 C   0  0  0  0  0  0  0  0  0  0  0  0
    1.4817   -1.9590   -0.7970 C   0  0  0  0  0  0  0  0  0  0  0  0
    2.4240   -1.1799   -0.1127 C   0  0  0  0  0  0  0  0  0  0  0  0
    3.8465   -1.4585   -0.2271 C   0  0  0  0  0  0  0  0  0  0  0  0
    4.2479   -2.3984   -1.0023 O   0  0  0  0  0  0  0  0  0  0  0  0
    4.8580   -0.7734    0.4559 N   0  0  0  0  0  0  0  0  0  0  0  0
    6.2679   -1.1042    0.3098 C   0  0  1  0  0  0  0  0  0  0  0  0
    6.9643   -0.1961   -0.6390 C   0  0  0  0  0  0  0  0  0  0  0  0
    6.9540    1.2299   -0.2607 C   0  0  0  0  0  0  0  0  0  0  0  0
    5.6147    1.8453   -0.1630 C   0  0  0  0  0  0  0  0  0  0  0  0
    5.2284    2.5561    0.8084 O   0  0  0  0  0  0  0  0  0  0  0  0
    4.7136    1.6391   -1.1973 O   0  0  0  0  0  0  0  0  0  0  0  0
    6.9665   -1.2994    1.5759 C   0  0  0  0  0  0  0  0  0  0  0  0
    6.4593   -1.1756    2.7209 O   0  0  0  0  0  0  0  0  0  0  0  0
    8.3137   -1.6554    1.5204 O   0  0  0  0  0  0  0  0  0  0  0  0
    1.9243   -0.1651    0.6577 C   0  0  0  0  0  0  0  0  0  0  0  0
    0.5529    0.0845    0.7593 C   0  0  0  0  0  0  0  0  0  0  0  0
   -4.4234    0.2482   -1.0658 N   0  0  0  0  0  0  0  0  0  0  0  0
   -9.2699    3.8280   -0.2472 H   0  0  0  0  0  0  0  0  0  0  0  0
   -9.6861    2.4434    0.9011 H   0  0  0  0  0  0  0  0  0  0  0  0
   -7.5903    1.3888    1.7833 H   0  0  0  0  0  0  0  0  0  0  0  0
   -5.4690    0.2767    2.4673 H   0  0  0  0  0  0  0  0  0  0  0  0
   -3.5899   -1.0246    1.6646 H   0  0  0  0  0  0  0  0  0  0  0  0
   -5.0551   -2.0144    1.2700 H   0  0  0  0  0  0  0  0  0  0  0  0
   -4.6688   -1.7837   -0.9322 H   0  0  0  0  0  0  0  0  0  0  0  0
   -2.3629   -1.2995   -1.6139 H   0  0  0  0  0  0  0  0  0  0  0  0
   -2.5286   -2.3577   -0.1741 H   0  0  0  0  0  0  0  0  0  0  0  0
   -2.1412    0.3164    0.7465 H   0  0  0  0  0  0  0  0  0  0  0  0
   -0.6096   -2.3155   -1.2311 H   0  0  0  0  0  0  0  0  0  0  0  0
    1.8779   -2.7582   -1.3966 H   0  0  0  0  0  0  0  0  0  0  0  0
    4.5665   -0.0113    1.0998 H   0  0  0  0  0  0  0  0  0  0  0  0
    6.2874   -2.1247   -0.2092 H   0  0  0  0  0  0  0  0  0  0  0  0
    8.0369   -0.5226   -0.8046 H   0  0  0  0  0  0  0  0  0  0  0  0
    6.5160   -0.3133   -1.6775 H   0  0  0  0  0  0  0  0  0  0  0  0
    7.4448    1.3210    0.7414 H   0  0  0  0  0  0  0  0  0  0  0  0
    7.5677    1.8026   -1.0221 H   0  0  0  0  0  0  0  0  0  0  0  0
    4.0876    2.3904   -1.5215 H   0  0  0  0  0  0  0  0  0  0  0  0
    8.9561   -1.5523    2.2699 H   0  0  0  0  0  0  0  0  0  0  0  0
    2.6252    0.4770    1.2184 H   0  0  0  0  0  0  0  0  0  0  0  0
    0.2067    0.9111    1.3934 H   0  0  0  0  0  0  0  0  0  0  0  0
   -3.7462    0.5902   -1.7972 H   0  0  0  0  0  0  0  0  0  0  0  0
  1  2  1  0
  2  3  2  0
  3  4  1  0
  4  5  2  0
  4  6  1  0
  6  7  2  0
  7  8  1  0
  7  9  1  0
  9 10  1  0
 10 11  1  0
 11 12  1  0
 12 13  1  0
 13 14  1  0
 14 15  2  0
 15 16  1  0
 16 17  2  0
 17 18  1  0
 18 19  2  0
 18 20  1  0
 20 21  1  0
 21 22  1  0
 22 23  1  0
 23 24  1  0
 24 25  2  0
 24 26  1  0
 21 27  1  0
 27 28  2  0
 27 29  1  0
 17 30  1  0
 30 31  2  0
 11 32  1  0
  8  2  1  0
 31 14  1  0
 32  6  1  0
  1 33  1  0
  1 34  1  0
  8 35  1  0
  9 36  1  0
 10 37  1  0
 10 38  1  0
 11 39  1  6
 12 40  1  0
 12 41  1  0
 13 42  1  0
 15 43  1  0
 16 44  1  0
 20 45  1  0
 21 46  1  6
 22 47  1  0
 22 48  1  0
 23 49  1  0
 23 50  1  0
 26 51  1  0
 29 52  1  0
 30 53  1  0
 31 54  1  0
 32 55  1  0
M  END
$$$$

     RDKit          3D

 55 57  0  0  0  0  0  0  0  0999 V2000
   -9.9011   -1.1804    0.1936 N   0  0  0  0  0  0  0  0  0  0  0  0
   -8.5468   -0.9778    0.5665 C   0  0  0  0  0  0  0  0  0  0  0  0
   -8.0393   -1.4707    1.7224 N   0  0  0  0  0  0  0  0  0  0  0  0
   -6.7548   -1.2672    2.0670 C   0  0  0  0  0  0  0  0  0  0  0  0
   -6.2407   -1.7147    3.1449 O   0  0  0  0  0  0  0  0  0  0  0  0
   -5.8871   -0.5444    1.2576 C   0  0  0  0  0  0  0  0  0  0  0  0
   -6.4140   -0.0484    0.0839 C   0  0  0  0  0  0  0  0  0  0  0  0
   -7.7172   -0.2769   -0.2258 N   0  0  0  0  0  0  0  0  0  0  0  0
   -5.5528    0.6893   -0.7599 N   0  0  0  0  0  0  0  0  0  0  0  0
   -4.1942    1.0591   -0.4490 C   0  0  0  0  0  0  0  0  0  0  0  0
   -3.5618    0.1645    0.6107 C   0  0  2  0  0  0  0  0  0  0  0  0
   -3.0159   -1.0491   -0.0736 C   0  0  0  0  0  0  0  0  0  0  0  0
   -1.9999   -0.8109   -1.0492 N   0  0  0  0  0  0  0  0  0  0  0  0
   -0.6944   -0.4261   -0.6942 C   0  0  0  0  0  0  0  0  0  0  0  0
    0.2269   -0.1204   -1.6874 C   0  0  0  0  0  0  0  0  0  0  0  0
    1.5238    0.2316   -1.3736 C   0  0  0  0  0  0  0  0  0  0  0  0
    1.9353    0.2879   -0.0583 C   0  0  0  0  0  0  0  0  0  0  0  0
    3.2995    0.6224    0.3237 C   0  0  0  0  0  0  0  0  0  0  0  0
    3.5183    1.0416    1.5107 O   0  0  0  0  0  0  0  0  0  0  0  0
    4.3649    0.4956   -0.5566 N   0  0  0  0  0  0  0  0  0  0  0  0
    5.7331    0.8305   -0.1403 C   0  0  1  0  0  0  0  0  0  0  0  0
    6.3894   -0.5013    0.0783 C   0  0  0  0  0  0  0  0  0  0  0  0
    7.8144   -0.5073    0.4502 C   0  0  0  0  0  0  0  0  0  0  0  0
    8.7487   -0.0702   -0.5876 C   0  0  0  0  0  0  0  0  0  0  0  0
    8.3561   -0.0077   -1.7997 O   0  0  0  0  0  0  0  0  0  0  0  0
   10.0506    0.2797   -0.3006 O   0  0  0  0  0  0  0  0  0  0  0  0
    6.3963    1.8065   -0.9629 C   0  0  0  0  0  0  0  0  0  0  0  0
    5.9951    2.1738   -2.1136 O   0  0  0  0  0  0  0  0  0  0  0  0
    7.5640    2.4308   -0.5034 O   0  0  0  0  0  0  0  0  0  0  0  0
    0.9842   -0.0235    0.9184 C   0  0  0  0  0  0  0  0  0  0  0  0
   -0.3112   -0.3771    0.6386 C   0  0  0  0  0  0  0  0  0  0  0  0
   -4.5369   -0.3076    1.5847 N   0  0  0  0  0  0  0  0  0  0  0  0
  -10.2738   -2.1298    0.0051 H   0  0  0  0  0  0  0  0  0  0  0  0
  -10.5568   -0.3790    0.1026 H   0  0  0  0  0  0  0  0  0  0  0  0
   -8.0870    0.1098   -1.1154 H   0  0  0  0  0  0  0  0  0  0  0  0
   -5.9267    0.9984   -1.6936 H   0  0  0  0  0  0  0  0  0  0  0  0
   -3.5991    0.9173   -1.3803 H   0  0  0  0  0  0  0  0  0  0  0  0
   -4.1025    2.1338   -0.1734 H   0  0  0  0  0  0  0  0  0  0  0  0
   -2.8074    0.7981    1.1107 H   0  0  0  0  0  0  0  0  0  0  0  0
   -3.8392   -1.6605   -0.5441 H   0  0  0  0  0  0  0  0  0  0  0  0
   -2.5638   -1.7785    0.6667 H   0  0  0  0  0  0  0  0  0  0  0  0
   -2.2367   -0.9239   -2.0600 H   0  0  0  0  0  0  0  0  0  0  0  0
   -0.0876   -0.1601   -2.7364 H   0  0  0  0  0  0  0  0  0  0  0  0
    2.2328    0.4702   -2.1706 H   0  0  0  0  0  0  0  0  0  0  0  0
    4.2566    0.1671   -1.5313 H   0  0  0  0  0  0  0  0  0  0  0  0
    5.6131    1.2839    0.9046 H   0  0  0  0  0  0  0  0  0  0  0  0
    5.8173   -0.9910    0.9171 H   0  0  0  0  0  0  0  0  0  0  0  0
    6.1768   -1.1651   -0.8017 H   0  0  0  0  0  0  0  0  0  0  0  0
    8.0702   -1.5464    0.7942 H   0  0  0  0  0  0  0  0  0  0  0  0
    7.9654    0.1177    1.3735 H   0  0  0  0  0  0  0  0  0  0  0  0
   10.4940    1.0177   -0.8362 H   0  0  0  0  0  0  0  0  0  0  0  0
    7.8430    3.3659   -0.7792 H   0  0  0  0  0  0  0  0  0  0  0  0
    1.3441    0.0335    1.9565 H   0  0  0  0  0  0  0  0  0  0  0  0
   -0.9974   -0.6181    1.4476 H   0  0  0  0  0  0  0  0  0  0  0  0
   -4.2680   -0.4924    2.5839 H   0  0  0  0  0  0  0  0  0  0  0  0
  1  2  1  0
  2  3  2  0
  3  4  1  0
  4  5  2  0
  4  6  1  0
  6  7  2  0
  7  8  1  0
  7  9  1  0
  9 10  1  0
 10 11  1  0
 11 12  1  0
 12 13  1  0
 13 14  1  0
 14 15  2  0
 15 16  1  0
 16 17  2  0
 17 18  1  0
 18 19  2  0
 18 20  1  0
 20 21  1  0
 21 22  1  0
 22 23  1  0
 23 24  1  0
 24 25  2  0
 24 26  1  0
 21 27  1  0
 27 28  2  0
 27 29  1  0
 17 30  1  0
 30 31  2  0
 11 32  1  0
  8  2  1  0
 31 14  1  0
 32  6  1  0
  1 33  1  0
  1 34  1  0
  8 35  1  0
  9 36  1  0
 10 37  1  0
 10 38  1  0
 11 39  1  1
 12 40  1  0
 12 41  1  0
 13 42  1  0
 15 43  1  0
 16 44  1  0
 20 45  1  0
 21 46  1  1
 22 47  1  0
 22 48  1  0
 23 49  1  0
 23 50  1  0
 26 51  1  0
 29 52  1  0
 30 53  1  0
 31 54  1  0
 32 55  1  0
M  END
$$$$

     RDKit          3D

 55 57  0  0  0  0  0  0  0  0999 V2000
    8.4566    2.2609   -0.8946 N   0  0  0  0  0  0  0  0  0  0  0  0
    7.4474    1.4762   -0.2952 C   0  0  0  0  0  0  0  0  0  0  0  0
    6.9360    1.8358    0.8785 N   0  0  0  0  0  0  0  0  0  0  0  0
    5.9701    1.0716    1.4375 C   0  0  0  0  0  0  0  0  0  0  0  0
    5.4828    1.4056    2.5460 O   0  0  0  0  0  0  0  0  0  0  0  0
    5.5257   -0.0757    0.7807 C   0  0  0  0  0  0  0  0  0  0  0  0
    6.0877   -0.4132   -0.4430 C   0  0  0  0  0  0  0  0  0  0  0  0
    7.0433    0.3663   -0.9689 N   0  0  0  0  0  0  0  0  0  0  0  0
    5.6194   -1.5913   -1.1002 N   0  0  0  0  0  0  0  0  0  0  0  0
    5.0833   -2.6601   -0.2982 C   0  0  0  0  0  0  0  0  0  0  0  0
    4.0658   -2.1112    0.6721 C   0  0  2  0  0  0  0  0  0  0  0  0
    2.8154   -1.7983   -0.1150 C   0  0  0  0  0  0  0  0  0  0  0  0
    1.7949   -1.2667    0.7556 N   0  0  0  0  0  0  0  0  0  0  0  0
    0.5087   -0.8700    0.2784 C   0  0  0  0  0  0  0  0  0  0  0  0
   -0.4548   -0.3622    1.1239 C   0  0  0  0  0  0  0  0  0  0  0  0
   -1.7101    0.0232    0.6321 C   0  0  0  0  0  0  0  0  0  0  0  0
   -2.0252   -0.0887   -0.6949 C   0  0  0  0  0  0  0  0  0  0  0  0
   -3.3467    0.3135   -1.2304 C   0  0  0  0  0  0  0  0  0  0  0  0
   -3.5230    0.2796   -2.5000 O   0  0  0  0  0  0  0  0  0  0  0  0
   -4.4127    0.7272   -0.4372 N   0  0  0  0  0  0  0  0  0  0  0  0
   -5.6931    1.1146   -1.0150 C   0  0  1  0  0  0  0  0  0  0  0  0
   -6.7428    0.0935   -0.7576 C   0  0  0  0  0  0  0  0  0  0  0  0
   -7.0088   -0.2710    0.6457 C   0  0  0  0  0  0  0  0  0  0  0  0
   -7.5019    0.7564    1.5244 C   0  0  0  0  0  0  0  0  0  0  0  0
   -7.8217    1.9113    1.1948 O   0  0  0  0  0  0  0  0  0  0  0  0
   -7.6670    0.4993    2.9262 O   0  0  0  0  0  0  0  0  0  0  0  0
   -5.9659    2.5095   -0.7122 C   0  0  0  0  0  0  0  0  0  0  0  0
   -5.2338    3.1452    0.0788 O   0  0  0  0  0  0  0  0  0  0  0  0
   -7.0357    3.1768   -1.2932 O   0  0  0  0  0  0  0  0  0  0  0  0
   -1.0582   -0.5986   -1.5442 C   0  0  0  0  0  0  0  0  0  0  0  0
    0.1726   -0.9749   -1.0531 C   0  0  0  0  0  0  0  0  0  0  0  0
    4.5212   -0.9026    1.3254 N   0  0  0  0  0  0  0  0  0  0  0  0
    8.2103    3.0166   -1.5821 H   0  0  0  0  0  0  0  0  0  0  0  0
    9.4726    2.1438   -0.6998 H   0  0  0  0  0  0  0  0  0  0  0  0
    7.4527    0.1052   -1.8778 H   0  0  0  0  0  0  0  0  0  0  0  0
    5.6925   -1.6143   -2.1451 H   0  0  0  0  0  0  0  0  0  0  0  0
    4.5165   -3.3389   -0.9903 H   0  0  0  0  0  0  0  0  0  0  0  0
    5.8592   -3.2152    0.2641 H   0  0  0  0  0  0  0  0  0  0  0  0
    3.8789   -2.8645    1.4616 H   0  0  0  0  0  0  0  0  0  0  0  0
    2.4189   -2.7827   -0.4966 H   0  0  0  0  0  0  0  0  0  0  0  0
    3.0038   -1.1871   -0.9961 H   0  0  0  0  0  0  0  0  0  0  0  0
    2.0039   -1.1705    1.7596 H   0  0  0  0  0  0  0  0  0  0  0  0
   -0.2327   -0.2613    2.1857 H   0  0  0  0  0  0  0  0  0  0  0  0
   -2.4539    0.4231    1.3229 H   0  0  0  0  0  0  0  0  0  0  0  0
   -4.2935    0.7616    0.6064 H   0  0  0  0  0  0  0  0  0  0  0  0
   -5.5012    1.0314   -2.1665 H   0  0  0  0  0  0  0  0  0  0  0  0
   -7.7304    0.5022   -1.1669 H   0  0  0  0  0  0  0  0  0  0  0  0
   -6.5890   -0.8108   -1.4189 H   0  0  0  0  0  0  0  0  0  0  0  0
   -7.7692   -1.1272    0.6001 H   0  0  0  0  0  0  0  0  0  0  0  0
   -6.0699   -0.7668    1.0909 H   0  0  0  0  0  0  0  0  0  0  0  0
   -8.4000    0.9810    3.3977 H   0  0  0  0  0  0  0  0  0  0  0  0
   -7.5456    3.9200   -0.8018 H   0  0  0  0  0  0  0  0  0  0  0  0
   -1.2808   -0.6974   -2.5930 H   0  0  0  0  0  0  0  0  0  0  0  0
    0.9488   -1.3810   -1.7140 H   0  0  0  0  0  0  0  0  0  0  0  0
    4.0786   -0.6489    2.2317 H   0  0  0  0  0  0  0  0  0  0  0  0
  1  2  1  0
  2  3  2  0
  3  4  1  0
  4  5  2  0
  4  6  1  0
  6  7  2  0
  7  8  1  0
  7  9  1  0
  9 10  1  0
 10 11  1  0
 11 12  1  0
 12 13  1  0
 13 14  1  0
 14 15  2  0
 15 16  1  0
 16 17  2  0
 17 18  1  0
 18 19  2  0
 18 20  1  0
 20 21  1  0
 21 22  1  0
 22 23  1  0
 23 24  1  0
 24 25  2  0
 24 26  1  0
 21 27  1  0
 27 28  2  0
 27 29  1  0
 17 30  1  0
 30 31  2  0
 11 32  1  0
  8  2  1  0
 31 14  1  0
 32  6  1  0
  1 33  1  0
  1 34  1  0
  8 35  1  0
  9 36  1  0
 10 37  1  0
 10 38  1  0
 11 39  1  1
 12 40  1  0
 12 41  1  0
 13 42  1  0
 15 43  1  0
 16 44  1  0
 20 45  1  0
 21 46  1  6
 22 47  1  0
 22 48  1  0
 23 49  1  0
 23 50  1  0
 26 51  1  0
 29 52  1  0
 30 53  1  0
 31 54  1  0
 32 55  1  0
M  END
$$$$

     RDKit          3D

 55 57  0  0  0  0  0  0  0  0999 V2000
    9.6490   -0.2340   -0.6714 N   0  0  0  0  0  0  0  0  0  0  0  0
    8.3659   -0.2511   -0.0618 C   0  0  0  0  0  0  0  0  0  0  0  0
    8.2287    0.0341    1.2405 N   0  0  0  0  0  0  0  0  0  0  0  0
    7.0307    0.0329    1.8709 C   0  0  0  0  0  0  0  0  0  0  0  0
    6.9184    0.3023    3.0922 O   0  0  0  0  0  0  0  0  0  0  0  0
    5.8827   -0.2789    1.1329 C   0  0  0  0  0  0  0  0  0  0  0  0
    6.0342   -0.5683   -0.1971 C   0  0  0  0  0  0  0  0  0  0  0  0
    7.2578   -0.5489   -0.7614 N   0  0  0  0  0  0  0  0  0  0  0  0
    4.8532   -0.8852   -0.9527 N   0  0  0  0  0  0  0  0  0  0  0  0
    3.7114   -1.4044   -0.2277 C   0  0  0  0  0  0  0  0  0  0  0  0
    3.3935   -0.4220    0.9101 C   0  0  2  0  0  0  0  0  0  0  0  0
    3.1139    0.9080    0.2477 C   0  0  0  0  0  0  0  0  0  0  0  0
    2.0116    0.8337   -0.6560 N   0  0  0  0  0  0  0  0  0  0  0  0
    0.6894    0.5872   -0.2293 C   0  0  0  0  0  0  0  0  0  0  0  0
   -0.3007    0.2763   -1.1621 C   0  0  0  0  0  0  0  0  0  0  0  0
   -1.6039    0.0400   -0.7885 C   0  0  0  0  0  0  0  0  0  0  0  0
   -1.9818    0.1033    0.5387 C   0  0  0  0  0  0  0  0  0  0  0  0
   -3.3464   -0.1317    0.9720 C   0  0  0  0  0  0  0  0  0  0  0  0
   -3.5661   -0.1893    2.2157 O   0  0  0  0  0  0  0  0  0  0  0  0
   -4.4477   -0.3007    0.1247 N   0  0  0  0  0  0  0  0  0  0  0  0
   -5.7703   -0.5276    0.6659 C   0  0  1  0  0  0  0  0  0  0  0  0
   -6.7107    0.6090    0.3464 C   0  0  0  0  0  0  0  0  0  0  0  0
   -6.9074    0.8170   -1.1495 C   0  0  0  0  0  0  0  0  0  0  0  0
   -7.8111    1.9657   -1.2890 C   0  0  0  0  0  0  0  0  0  0  0  0
   -7.4513    3.0488   -0.7039 O   0  0  0  0  0  0  0  0  0  0  0  0
   -9.0078    2.0004   -1.9838 O   0  0  0  0  0  0  0  0  0  0  0  0
   -6.3604   -1.7750    0.1302 C   0  0  0  0  0  0  0  0  0  0  0  0
   -5.6534   -2.4443   -0.6900 O   0  0  0  0  0  0  0  0  0  0  0  0
   -7.6229   -2.2237    0.4834 O   0  0  0  0  0  0  0  0  0  0  0  0
   -0.9883    0.4120    1.4442 C   0  0  0  0  0  0  0  0  0  0  0  0
    0.3174    0.6511    1.0908 C   0  0  0  0  0  0  0  0  0  0  0  0
    4.6027   -0.2984    1.7265 N   0  0  0  0  0  0  0  0  0  0  0  0
   10.5191   -0.3422   -0.1086 H   0  0  0  0  0  0  0  0  0  0  0  0
    9.7662   -0.1140   -1.6997 H   0  0  0  0  0  0  0  0  0  0  0  0
    7.3479   -0.7670   -1.7601 H   0  0  0  0  0  0  0  0  0  0  0  0
    4.8697   -0.7283   -1.9764 H   0  0  0  0  0  0  0  0  0  0  0  0
    3.9304   -2.3906    0.2457 H   0  0  0  0  0  0  0  0  0  0  0  0
    2.8500   -1.4656   -0.9088 H   0  0  0  0  0  0  0  0  0  0  0  0
    2.5774   -0.8095    1.5227 H   0  0  0  0  0  0  0  0  0  0  0  0
    4.0549    1.1662   -0.3039 H   0  0  0  0  0  0  0  0  0  0  0  0
    3.0028    1.7124    1.0085 H   0  0  0  0  0  0  0  0  0  0  0  0
    2.1882    0.9709   -1.6953 H   0  0  0  0  0  0  0  0  0  0  0  0
    0.0291    0.2325   -2.2000 H   0  0  0  0  0  0  0  0  0  0  0  0
   -2.3210   -0.1961   -1.5621 H   0  0  0  0  0  0  0  0  0  0  0  0
   -4.3148   -0.2625   -0.9032 H   0  0  0  0  0  0  0  0  0  0  0  0
   -5.7564   -0.6068    1.7700 H   0  0  0  0  0  0  0  0  0  0  0  0
   -7.7285    0.2858    0.7162 H   0  0  0  0  0  0  0  0  0  0  0  0
   -6.4901    1.5484    0.8656 H   0  0  0  0  0  0  0  0  0  0  0  0
   -5.9554    0.9118   -1.7004 H   0  0  0  0  0  0  0  0  0  0  0  0
   -7.4493   -0.0634   -1.5948 H   0  0  0  0  0  0  0  0  0  0  0  0
   -9.8291    2.5088   -1.6031 H   0  0  0  0  0  0  0  0  0  0  0  0
   -8.0852   -2.8641   -0.1774 H   0  0  0  0  0  0  0  0  0  0  0  0
   -1.2774    0.4645    2.4812 H   0  0  0  0  0  0  0  0  0  0  0  0
    1.0020    0.8917    1.8717 H   0  0  0  0  0  0  0  0  0  0  0  0
    4.5392   -0.2211    2.7768 H   0  0  0  0  0  0  0  0  0  0  0  0
  1  2  1  0
  2  3  2  0
  3  4  1  0
  4  5  2  0
  4  6  1  0
  6  7  2  0
  7  8  1  0
  7  9  1  0
  9 10  1  0
 10 11  1  0
 11 12  1  0
 12 13  1  0
 13 14  1  0
 14 15  2  0
 15 16  1  0
 16 17  2  0
 17 18  1  0
 18 19  2  0
 18 20  1  0
 20 21  1  0
 21 22  1  0
 22 23  1  0
 23 24  1  0
 24 25  2  0
 24 26  1  0
 21 27  1  0
 27 28  2  0
 27 29  1  0
 17 30  1  0
 30 31  2  0
 11 32  1  0
  8  2  1  0
 31 14  1  0
 32  6  1  0
  1 33  1  0
  1 34  1  0
  8 35  1  0
  9 36  1  0
 10 37  1  0
 10 38  1  0
 11 39  1  1
 12 40  1  0
 12 41  1  0
 13 42  1  0
 15 43  1  0
 16 44  1  0
 20 45  1  0
 21 46  1  1
 22 47  1  0
 22 48  1  0
 23 49  1  0
 23 50  1  0
 26 51  1  0
 29 52  1  0
 30 53  1  0
 31 54  1  0
 32 55  1  0
M  END
$$$$

     RDKit          3D

 55 57  0  0  0  0  0  0  0  0999 V2000
   -9.4678    1.3444    0.1483 N   0  0  0  0  0  0  0  0  0  0  0  0
   -8.0553    1.2088    0.1901 C   0  0  0  0  0  0  0  0  0  0  0  0
   -7.3055    1.8620    1.0806 N   0  0  0  0  0  0  0  0  0  0  0  0
   -5.9754    1.7688    1.1613 C   0  0  0  0  0  0  0  0  0  0  0  0
   -5.2618    2.3775    1.9933 O   0  0  0  0  0  0  0  0  0  0  0  0
   -5.3150    0.9390    0.2631 C   0  0  0  0  0  0  0  0  0  0  0  0
   -6.0962    0.2683   -0.6527 C   0  0  0  0  0  0  0  0  0  0  0  0
   -7.4556    0.3948   -0.6979 N   0  0  0  0  0  0  0  0  0  0  0  0
   -5.4194   -0.5888   -1.5762 N   0  0  0  0  0  0  0  0  0  0  0  0
   -4.2284   -1.2519   -1.1353 C   0  0  0  0  0  0  0  0  0  0  0  0
   -3.3314   -0.4477   -0.2584 C   0  0  2  0  0  0  0  0  0  0  0  0
   -3.0095   -1.3004    0.9636 C   0  0  0  0  0  0  0  0  0  0  0  0
   -2.1426   -0.6481    1.9029 N   0  0  0  0  0  0  0  0  0  0  0  0
   -0.7878   -0.3410    1.6307 C   0  0  0  0  0  0  0  0  0  0  0  0
   -0.0753    0.5005    2.4955 C   0  0  0  0  0  0  0  0  0  0  0  0
    1.2452    0.7987    2.2554 C   0  0  0  0  0  0  0  0  0  0  0  0
    1.9401    0.3021    1.1744 C   0  0  0  0  0  0  0  0  0  0  0  0
    3.3459    0.6527    0.9685 C   0  0  0  0  0  0  0  0  0  0  0  0
    3.9471    1.4102    1.7921 O   0  0  0  0  0  0  0  0  0  0  0  0
    4.1157    0.1913   -0.1251 N   0  0  0  0  0  0  0  0  0  0  0  0
    5.5309    0.5581   -0.3108 C   0  0  1  0  0  0  0  0  0  0  0  0
    6.3710   -0.6718   -0.3735 C   0  0  0  0  0  0  0  0  0  0  0  0
    7.8206   -0.3418   -0.5342 C   0  0  0  0  0  0  0  0  0  0  0  0
    8.6614   -1.5812   -0.5735 C   0  0  0  0  0  0  0  0  0  0  0  0
    9.9026   -1.4632   -0.7053 O   0  0  0  0  0  0  0  0  0  0  0  0
    8.1157   -2.8499   -0.4695 O   0  0  0  0  0  0  0  0  0  0  0  0
    5.5799    1.2871   -1.5945 C   0  0  0  0  0  0  0  0  0  0  0  0
    4.4980    1.3833   -2.2796 O   0  0  0  0  0  0  0  0  0  0  0  0
    6.7245    1.8820   -2.1124 O   0  0  0  0  0  0  0  0  0  0  0  0
    1.2536   -0.5250    0.3179 C   0  0  0  0  0  0  0  0  0  0  0  0
   -0.0899   -0.8362    0.5512 C   0  0  0  0  0  0  0  0  0  0  0  0
   -3.9282    0.7708    0.2531 N   0  0  0  0  0  0  0  0  0  0  0  0
  -10.0135    1.4863    1.0222 H   0  0  0  0  0  0  0  0  0  0  0  0
   -9.9942    1.3062   -0.7481 H   0  0  0  0  0  0  0  0  0  0  0  0
   -7.9984   -0.1464   -1.4263 H   0  0  0  0  0  0  0  0  0  0  0  0
   -5.8388   -0.6910   -2.5455 H   0  0  0  0  0  0  0  0  0  0  0  0
   -3.6414   -1.5645   -2.0474 H   0  0  0  0  0  0  0  0  0  0  0  0
   -4.5307   -2.2251   -0.6503 H   0  0  0  0  0  0  0  0  0  0  0  0
   -2.4167   -0.1695   -0.8223 H   0  0  0  0  0  0  0  0  0  0  0  0
   -3.9371   -1.6708    1.4384 H   0  0  0  0  0  0  0  0  0  0  0  0
   -2.5076   -2.2180    0.5499 H   0  0  0  0  0  0  0  0  0  0  0  0
   -2.5240   -0.3863    2.8320 H   0  0  0  0  0  0  0  0  0  0  0  0
   -0.6015    0.9123    3.3661 H   0  0  0  0  0  0  0  0  0  0  0  0
    1.8182    1.4546    2.9206 H   0  0  0  0  0  0  0  0  0  0  0  0
    3.6745   -0.4324   -0.8318 H   0  0  0  0  0  0  0  0  0  0  0  0
    5.8852    1.2070    0.4879 H   0  0  0  0  0  0  0  0  0  0  0  0
    6.2867   -1.2863    0.5701 H   0  0  0  0  0  0  0  0  0  0  0  0
    6.0942   -1.3164   -1.2444 H   0  0  0  0  0  0  0  0  0  0  0  0
    8.0724    0.3330   -1.3519 H   0  0  0  0  0  0  0  0  0  0  0  0
    8.1344    0.1877    0.4118 H   0  0  0  0  0  0  0  0  0  0  0  0
    8.5590   -3.6733   -0.8747 H   0  0  0  0  0  0  0  0  0  0  0  0
    6.5906    2.7558   -2.6306 H   0  0  0  0  0  0  0  0  0  0  0  0
    1.7335   -0.9443   -0.5402 H   0  0  0  0  0  0  0  0  0  0  0  0
   -0.6237   -1.5024   -0.1287 H   0  0  0  0  0  0  0  0  0  0  0  0
   -3.3282    1.5302    0.6179 H   0  0  0  0  0  0  0  0  0  0  0  0
  1  2  1  0
  2  3  2  0
  3  4  1  0
  4  5  2  0
  4  6  1  0
  6  7  2  0
  7  8  1  0
  7  9  1  0
  9 10  1  0
 10 11  1  0
 11 12  1  0
 12 13  1  0
 13 14  1  0
 14 15  2  0
 15 16  1  0
 16 17  2  0
 17 18  1  0
 18 19  2  0
 18 20  1  0
 20 21  1  0
 21 22  1  0
 22 23  1  0
 23 24  1  0
 24 25  2  0
 24 26  1  0
 21 27  1  0
 27 28  2  0
 27 29  1  0
 17 30  1  0
 30 31  2  0
 11 32  1  0
  8  2  1  0
 31 14  1  0
 32  6  1  0
  1 33  1  0
  1 34  1  0
  8 35  1  0
  9 36  1  0
 10 37  1  0
 10 38  1  0
 11 39  1  6
 12 40  1  0
 12 41  1  0
 13 42  1  0
 15 43  1  0
 16 44  1  0
 20 45  1  0
 21 46  1  1
 22 47  1  0
 22 48  1  0
 23 49  1  0
 23 50  1  0
 26 51  1  0
 29 52  1  0
 30 53  1  0
 31 54  1  0
 32 55  1  0
M  END
$$$$

     RDKit          3D

 55 57  0  0  0  0  0  0  0  0999 V2000
    9.0566    1.0685   -0.4955 N   0  0  0  0  0  0  0  0  0  0  0  0
    7.6392    1.1518   -0.5481 C   0  0  0  0  0  0  0  0  0  0  0  0
    7.0282    1.8867   -1.4864 N   0  0  0  0  0  0  0  0  0  0  0  0
    5.6698    1.9818   -1.5562 C   0  0  0  0  0  0  0  0  0  0  0  0
    5.1316    2.6859   -2.4567 O   0  0  0  0  0  0  0  0  0  0  0  0
    4.9104    1.3053   -0.6390 C   0  0  0  0  0  0  0  0  0  0  0  0
    5.5323    0.5496    0.3252 C   0  0  0  0  0  0  0  0  0  0  0  0
    6.8741    0.4964    0.3409 N   0  0  0  0  0  0  0  0  0  0  0  0
    4.7216   -0.1467    1.2699 N   0  0  0  0  0  0  0  0  0  0  0  0
    3.3536    0.2802    1.4813 C   0  0  0  0  0  0  0  0  0  0  0  0
    2.7253    0.4347    0.0858 C   0  0  2  0  0  0  0  0  0  0  0  0
    2.7726   -0.9431   -0.5246 C   0  0  0  0  0  0  0  0  0  0  0  0
    2.0226   -1.8448    0.2970 N   0  0  0  0  0  0  0  0  0  0  0  0
    0.6059   -1.7298    0.3616 C   0  0  0  0  0  0  0  0  0  0  0  0
   -0.1474   -0.9575   -0.4857 C   0  0  0  0  0  0  0  0  0  0  0  0
   -1.5344   -0.8734   -0.3709 C   0  0  0  0  0  0  0  0  0  0  0  0
   -2.2317   -1.5579    0.5959 C   0  0  0  0  0  0  0  0  0  0  0  0
   -3.6734   -1.5093    0.7633 C   0  0  0  0  0  0  0  0  0  0  0  0
   -4.1938   -2.2218    1.6488 O   0  0  0  0  0  0  0  0  0  0  0  0
   -4.5344   -0.6877   -0.0318 N   0  0  0  0  0  0  0  0  0  0  0  0
   -5.9670   -0.6819    0.1835 C   0  0  1  0  0  0  0  0  0  0  0  0
   -6.4402    0.5865    0.8063 C   0  0  0  0  0  0  0  0  0  0  0  0
   -6.2214    1.8519    0.0751 C   0  0  0  0  0  0  0  0  0  0  0  0
   -4.8216    2.2098   -0.2088 C   0  0  0  0  0  0  0  0  0  0  0  0
   -4.3992    2.4152   -1.3955 O   0  0  0  0  0  0  0  0  0  0  0  0
   -3.8771    2.3437    0.8278 O   0  0  0  0  0  0  0  0  0  0  0  0
   -6.7183   -1.0775   -1.0205 C   0  0  0  0  0  0  0  0  0  0  0  0
   -6.0943   -1.3713   -2.0657 O   0  0  0  0  0  0  0  0  0  0  0  0
   -8.0995   -1.1386   -1.0479 O   0  0  0  0  0  0  0  0  0  0  0  0
   -1.4540   -2.3381    1.4486 C   0  0  0  0  0  0  0  0  0  0  0  0
   -0.0935   -2.4361    1.3555 C   0  0  0  0  0  0  0  0  0  0  0  0
    3.5056    1.3872   -0.6943 N   0  0  0  0  0  0  0  0  0  0  0  0
    9.5545    1.4344    0.3573 H   0  0  0  0  0  0  0  0  0  0  0  0
    9.6450    0.6630   -1.2564 H   0  0  0  0  0  0  0  0  0  0  0  0
    7.3319   -0.0824    1.0816 H   0  0  0  0  0  0  0  0  0  0  0  0
    5.1548   -0.9425    1.7754 H   0  0  0  0  0  0  0  0  0  0  0  0
    2.7489   -0.4867    2.0054 H   0  0  0  0  0  0  0  0  0  0  0  0
    3.3359    1.2555    2.0148 H   0  0  0  0  0  0  0  0  0  0  0  0
    1.6915    0.7818    0.2097 H   0  0  0  0  0  0  0  0  0  0  0  0
    3.8245   -1.3021   -0.5990 H   0  0  0  0  0  0  0  0  0  0  0  0
    2.3003   -0.9128   -1.5512 H   0  0  0  0  0  0  0  0  0  0  0  0
    2.5038   -2.5893    0.8516 H   0  0  0  0  0  0  0  0  0  0  0  0
    0.3550   -0.4017   -1.2819 H   0  0  0  0  0  0  0  0  0  0  0  0
   -2.0800   -0.2489   -1.0661 H   0  0  0  0  0  0  0  0  0  0  0  0
   -4.0559   -0.1278   -0.7567 H   0  0  0  0  0  0  0  0  0  0  0  0
   -6.2274   -1.4896    0.9567 H   0  0  0  0  0  0  0  0  0  0  0  0
   -5.8759    0.6775    1.7822 H   0  0  0  0  0  0  0  0  0  0  0  0
   -7.5135    0.4913    1.1382 H   0  0  0  0  0  0  0  0  0  0  0  0
   -6.6807    2.6935    0.6870 H   0  0  0  0  0  0  0  0  0  0  0  0
   -6.8001    1.8674   -0.8794 H   0  0  0  0  0  0  0  0  0  0  0  0
   -3.2228    3.1314    0.8149 H   0  0  0  0  0  0  0  0  0  0  0  0
   -8.5708   -1.6962   -1.7488 H   0  0  0  0  0  0  0  0  0  0  0  0
   -1.9759   -2.8873    2.2166 H   0  0  0  0  0  0  0  0  0  0  0  0
    0.5049   -3.0504    2.0289 H   0  0  0  0  0  0  0  0  0  0  0  0
    3.0040    2.1025   -1.2722 H   0  0  0  0  0  0  0  0  0  0  0  0
  1  2  1  0
  2  3  2  0
  3  4  1  0
  4  5  2  0
  4  6  1  0
  6  7  2  0
  7  8  1  0
  7  9  1  0
  9 10  1  0
 10 11  1  0
 11 12  1  0
 12 13  1  0
 13 14  1  0
 14 15  2  0
 15 16  1  0
 16 17  2  0
 17 18  1  0
 18 19  2  0
 18 20  1  0
 20 21  1  0
 21 22  1  0
 22 23  1  0
 23 24  1  0
 24 25  2  0
 24 26  1  0
 21 27  1  0
 27 28  2  0
 27 29  1  0
 17 30  1  0
 30 31  2  0
 11 32  1  0
  8  2  1  0
 31 14  1  0
 32  6  1  0
  1 33  1  0
  1 34  1  0
  8 35  1  0
  9 36  1  0
 10 37  1  0
 10 38  1  0
 11 39  1  1
 12 40  1  0
 12 41  1  0
 13 42  1  0
 15 43  1  0
 16 44  1  0
 20 45  1  0
 21 46  1  1
 22 47  1  0
 22 48  1  0
 23 49  1  0
 23 50  1  0
 26 51  1  0
 29 52  1  0
 30 53  1  0
 31 54  1  0
 32 55  1  0
M  END
$$$$

     RDKit          3D

 55 57  0  0  0  0  0  0  0  0999 V2000
    9.1941   -2.1326    1.7906 N   0  0  0  0  0  0  0  0  0  0  0  0
    8.1599   -1.7741    0.8944 C   0  0  0  0  0  0  0  0  0  0  0  0
    7.8439   -2.4919   -0.1921 N   0  0  0  0  0  0  0  0  0  0  0  0
    6.8765   -2.1871   -1.0565 C   0  0  0  0  0  0  0  0  0  0  0  0
    6.5815   -2.8605   -2.0728 O   0  0  0  0  0  0  0  0  0  0  0  0
    6.1276   -1.0357   -0.8259 C   0  0  0  0  0  0  0  0  0  0  0  0
    6.4314   -0.2863    0.2759 C   0  0  0  0  0  0  0  0  0  0  0  0
    7.4382   -0.6589    1.1213 N   0  0  0  0  0  0  0  0  0  0  0  0
    5.6762    0.8901    0.5196 N   0  0  0  0  0  0  0  0  0  0  0  0
    4.7303    1.4402   -0.3957 C   0  0  0  0  0  0  0  0  0  0  0  0
    4.2517    0.5410   -1.4735 C   0  0  2  0  0  0  0  0  0  0  0  0
    2.8099    0.1425   -1.1501 C   0  0  0  0  0  0  0  0  0  0  0  0
    1.9877    1.3146   -1.0803 N   0  0  0  0  0  0  0  0  0  0  0  0
    0.5838    1.2548   -0.7801 C   0  0  0  0  0  0  0  0  0  0  0  0
   -0.1394    2.4387   -0.7008 C   0  0  0  0  0  0  0  0  0  0  0  0
   -1.4936    2.3854   -0.4095 C   0  0  0  0  0  0  0  0  0  0  0  0
   -2.1495    1.2064   -0.1960 C   0  0  0  0  0  0  0  0  0  0  0  0
   -3.5943    1.1785    0.1239 C   0  0  0  0  0  0  0  0  0  0  0  0
   -4.1665    2.2804    0.3427 O   0  0  0  0  0  0  0  0  0  0  0  0
   -4.3363    0.0064    0.1919 N   0  0  0  0  0  0  0  0  0  0  0  0
   -5.7597    0.0319    0.5140 C   0  0  1  0  0  0  0  0  0  0  0  0
   -6.5841   -0.3874   -0.6412 C   0  0  0  0  0  0  0  0  0  0  0  0
   -8.0413   -0.4346   -0.3495 C   0  0  0  0  0  0  0  0  0  0  0  0
   -8.4863   -1.4865    0.5732 C   0  0  0  0  0  0  0  0  0  0  0  0
   -7.7946   -2.4925    0.9047 O   0  0  0  0  0  0  0  0  0  0  0  0
   -9.7716   -1.3501    1.1166 O   0  0  0  0  0  0  0  0  0  0  0  0
   -5.9641   -0.6269    1.7894 C   0  0  0  0  0  0  0  0  0  0  0  0
   -5.1865   -1.5162    2.1975 O   0  0  0  0  0  0  0  0  0  0  0  0
   -7.0399   -0.2724    2.5989 O   0  0  0  0  0  0  0  0  0  0  0  0
   -1.4420    0.0305   -0.2727 C   0  0  0  0  0  0  0  0  0  0  0  0
   -0.0748    0.0771   -0.5661 C   0  0  0  0  0  0  0  0  0  0  0  0
    5.0743   -0.6174   -1.6813 N   0  0  0  0  0  0  0  0  0  0  0  0
   10.0343   -1.5338    1.8485 H   0  0  0  0  0  0  0  0  0  0  0  0
    9.1036   -2.9725    2.3671 H   0  0  0  0  0  0  0  0  0  0  0  0
    7.6467   -0.0544    1.9634 H   0  0  0  0  0  0  0  0  0  0  0  0
    5.8331    1.3698    1.4234 H   0  0  0  0  0  0  0  0  0  0  0  0
    3.8675    1.8115    0.2180 H   0  0  0  0  0  0  0  0  0  0  0  0
    5.2405    2.3157   -0.9008 H   0  0  0  0  0  0  0  0  0  0  0  0
    4.1828    1.0654   -2.4720 H   0  0  0  0  0  0  0  0  0  0  0  0
    2.4344   -0.6046   -1.8961 H   0  0  0  0  0  0  0  0  0  0  0  0
    2.7570   -0.3448   -0.1374 H   0  0  0  0  0  0  0  0  0  0  0  0
    2.4357    2.2461   -1.2552 H   0  0  0  0  0  0  0  0  0  0  0  0
    0.3703    3.3812   -0.8696 H   0  0  0  0  0  0  0  0  0  0  0  0
   -2.0889    3.2969   -0.3412 H   0  0  0  0  0  0  0  0  0  0  0  0
   -3.9192   -0.9244    0.0190 H   0  0  0  0  0  0  0  0  0  0  0  0
   -5.9856    1.1477    0.7186 H   0  0  0  0  0  0  0  0  0  0  0  0
   -6.2877   -1.4111   -0.9733 H   0  0  0  0  0  0  0  0  0  0  0  0
   -6.4455    0.3554   -1.4638 H   0  0  0  0  0  0  0  0  0  0  0  0
   -8.4070    0.5790    0.0197 H   0  0  0  0  0  0  0  0  0  0  0  0
   -8.6182   -0.5437   -1.3226 H   0  0  0  0  0  0  0  0  0  0  0  0
  -10.1366   -2.0142    1.7845 H   0  0  0  0  0  0  0  0  0  0  0  0
   -7.2346   -0.8337    3.4272 H   0  0  0  0  0  0  0  0  0  0  0  0
   -1.8908   -0.9441   -0.1162 H   0  0  0  0  0  0  0  0  0  0  0  0
    0.4801   -0.8500   -0.6253 H   0  0  0  0  0  0  0  0  0  0  0  0
    4.8858   -1.2016   -2.5260 H   0  0  0  0  0  0  0  0  0  0  0  0
  1  2  1  0
  2  3  2  0
  3  4  1  0
  4  5  2  0
  4  6  1  0
  6  7  2  0
  7  8  1  0
  7  9  1  0
  9 10  1  0
 10 11  1  0
 11 12  1  0
 12 13  1  0
 13 14  1  0
 14 15  2  0
 15 16  1  0
 16 17  2  0
 17 18  1  0
 18 19  2  0
 18 20  1  0
 20 21  1  0
 21 22  1  0
 22 23  1  0
 23 24  1  0
 24 25  2  0
 24 26  1  0
 21 27  1  0
 27 28  2  0
 27 29  1  0
 17 30  1  0
 30 31  2  0
 11 32  1  0
  8  2  1  0
 31 14  1  0
 32  6  1  0
  1 33  1  0
  1 34  1  0
  8 35  1  0
  9 36  1  0
 10 37  1  0
 10 38  1  0
 11 39  1  6
 12 40  1  0
 12 41  1  0
 13 42  1  0
 15 43  1  0
 16 44  1  0
 20 45  1  0
 21 46  1  1
 22 47  1  0
 22 48  1  0
 23 49  1  0
 23 50  1  0
 26 51  1  0
 29 52  1  0
 30 53  1  0
 31 54  1  0
 32 55  1  0
M  END
$$$$

     RDKit          3D

 55 57  0  0  0  0  0  0  0  0999 V2000
   -8.2156    1.8773   -1.4630 N   0  0  0  0  0  0  0  0  0  0  0  0
   -7.1982    0.8549   -1.3055 C   0  0  0  0  0  0  0  0  0  0  0  0
   -6.4979    0.4462   -2.3748 N   0  0  0  0  0  0  0  0  0  0  0  0
   -5.5518   -0.4948   -2.2674 C   0  0  0  0  0  0  0  0  0  0  0  0
   -4.8758   -0.9021   -3.2485 O   0  0  0  0  0  0  0  0  0  0  0  0
   -5.2846   -1.0617   -1.0356 C   0  0  0  0  0  0  0  0  0  0  0  0
   -6.0126   -0.6281    0.0408 C   0  0  0  0  0  0  0  0  0  0  0  0
   -6.9525    0.3173   -0.1076 N   0  0  0  0  0  0  0  0  0  0  0  0
   -5.7383   -1.2123    1.3176 N   0  0  0  0  0  0  0  0  0  0  0  0
   -4.9909   -2.4389    1.4683 C   0  0  0  0  0  0  0  0  0  0  0  0
   -3.8792   -2.5355    0.4471 C   0  0  2  0  0  0  0  0  0  0  0  0
   -2.7570   -1.6476    0.9120 C   0  0  0  0  0  0  0  0  0  0  0  0
   -1.6692   -1.7111   -0.0402 N   0  0  0  0  0  0  0  0  0  0  0  0
   -0.4772   -0.9570    0.1658 C   0  0  0  0  0  0  0  0  0  0  0  0
    0.5508   -1.0238   -0.7431 C   0  0  0  0  0  0  0  0  0  0  0  0
    1.7120   -0.2752   -0.5212 C   0  0  0  0  0  0  0  0  0  0  0  0
    1.8497    0.5236    0.5806 C   0  0  0  0  0  0  0  0  0  0  0  0
    3.0138    1.3185    0.8711 C   0  0  0  0  0  0  0  0  0  0  0  0
    3.0479    2.0323    1.8990 O   0  0  0  0  0  0  0  0  0  0  0  0
    4.1336    1.3110    0.0112 N   0  0  0  0  0  0  0  0  0  0  0  0
    5.3282    2.1091    0.2838 C   0  0  1  0  0  0  0  0  0  0  0  0
    6.5275    1.2225    0.5087 C   0  0  0  0  0  0  0  0  0  0  0  0
    6.7746    0.4013   -0.7084 C   0  0  0  0  0  0  0  0  0  0  0  0
    7.9557   -0.4931   -0.5668 C   0  0  0  0  0  0  0  0  0  0  0  0
    8.2593   -1.2301   -1.5354 O   0  0  0  0  0  0  0  0  0  0  0  0
    8.7457   -0.5671    0.5674 O   0  0  0  0  0  0  0  0  0  0  0  0
    5.5603    3.0849   -0.8093 C   0  0  0  0  0  0  0  0  0  0  0  0
    4.7776    3.1366   -1.7898 O   0  0  0  0  0  0  0  0  0  0  0  0
    6.6317    3.9612   -0.7896 O   0  0  0  0  0  0  0  0  0  0  0  0
    0.7946    0.5652    1.4725 C   0  0  0  0  0  0  0  0  0  0  0  0
   -0.3505   -0.1585    1.2759 C   0  0  0  0  0  0  0  0  0  0  0  0
   -4.3015   -2.0591   -0.8509 N   0  0  0  0  0  0  0  0  0  0  0  0
   -8.0319    2.7279   -2.0349 H   0  0  0  0  0  0  0  0  0  0  0  0
   -9.1276    1.7495   -0.9985 H   0  0  0  0  0  0  0  0  0  0  0  0
   -7.4755    0.6082    0.7482 H   0  0  0  0  0  0  0  0  0  0  0  0
   -6.0934   -0.7329    2.1741 H   0  0  0  0  0  0  0  0  0  0  0  0
   -4.5428   -2.4393    2.4824 H   0  0  0  0  0  0  0  0  0  0  0  0
   -5.6607   -3.3371    1.4371 H   0  0  0  0  0  0  0  0  0  0  0  0
   -3.5580   -3.5937    0.3465 H   0  0  0  0  0  0  0  0  0  0  0  0
   -3.1721   -0.6178    0.9985 H   0  0  0  0  0  0  0  0  0  0  0  0
   -2.3516   -1.9728    1.9099 H   0  0  0  0  0  0  0  0  0  0  0  0
   -1.7931   -2.3277   -0.8780 H   0  0  0  0  0  0  0  0  0  0  0  0
    0.4449   -1.6535   -1.6138 H   0  0  0  0  0  0  0  0  0  0  0  0
    2.4910   -0.3559   -1.2558 H   0  0  0  0  0  0  0  0  0  0  0  0
    4.0931    0.7210   -0.8429 H   0  0  0  0  0  0  0  0  0  0  0  0
    5.0905    2.7072    1.2011 H   0  0  0  0  0  0  0  0  0  0  0  0
    6.4341    0.6331    1.4372 H   0  0  0  0  0  0  0  0  0  0  0  0
    7.3899    1.9300    0.6847 H   0  0  0  0  0  0  0  0  0  0  0  0
    6.9793    1.0804   -1.5571 H   0  0  0  0  0  0  0  0  0  0  0  0
    5.8521   -0.1935   -0.9247 H   0  0  0  0  0  0  0  0  0  0  0  0
    9.1296   -1.4530    0.8945 H   0  0  0  0  0  0  0  0  0  0  0  0
    7.1581    4.1485   -1.6450 H   0  0  0  0  0  0  0  0  0  0  0  0
    0.8679    1.1871    2.3572 H   0  0  0  0  0  0  0  0  0  0  0  0
   -1.1734   -0.1128    1.9915 H   0  0  0  0  0  0  0  0  0  0  0  0
   -3.8605   -2.4688   -1.7272 H   0  0  0  0  0  0  0  0  0  0  0  0
  1  2  1  0
  2  3  2  0
  3  4  1  0
  4  5  2  0
  4  6  1  0
  6  7  2  0
  7  8  1  0
  7  9  1  0
  9 10  1  0
 10 11  1  0
 11 12  1  0
 12 13  1  0
 13 14  1  0
 14 15  2  0
 15 16  1  0
 16 17  2  0
 17 18  1  0
 18 19  2  0
 18 20  1  0
 20 21  1  0
 21 22  1  0
 22 23  1  0
 23 24  1  0
 24 25  2  0
 24 26  1  0
 21 27  1  0
 27 28  2  0
 27 29  1  0
 17 30  1  0
 30 31  2  0
 11 32  1  0
  8  2  1  0
 31 14  1  0
 32  6  1  0
  1 33  1  0
  1 34  1  0
  8 35  1  0
  9 36  1  0
 10 37  1  0
 10 38  1  0
 11 39  1  6
 12 40  1  0
 12 41  1  0
 13 42  1  0
 15 43  1  0
 16 44  1  0
 20 45  1  0
 21 46  1  1
 22 47  1  0
 22 48  1  0
 23 49  1  0
 23 50  1  0
 26 51  1  0
 29 52  1  0
 30 53  1  0
 31 54  1  0
 32 55  1  0
M  END
$$$$

     RDKit          3D

 55 57  0  0  0  0  0  0  0  0999 V2000
    7.1588   -0.7447    3.0885 N   0  0  0  0  0  0  0  0  0  0  0  0
    6.5850   -0.9600    1.8097 C   0  0  0  0  0  0  0  0  0  0  0  0
    6.3547   -2.2195    1.3963 N   0  0  0  0  0  0  0  0  0  0  0  0
    5.8126   -2.4518    0.1932 C   0  0  0  0  0  0  0  0  0  0  0  0
    5.5799   -3.6048   -0.2351 O   0  0  0  0  0  0  0  0  0  0  0  0
    5.4996   -1.3493   -0.6053 C   0  0  0  0  0  0  0  0  0  0  0  0
    5.7421   -0.0590   -0.1672 C   0  0  0  0  0  0  0  0  0  0  0  0
    6.2898    0.1080    1.0538 N   0  0  0  0  0  0  0  0  0  0  0  0
    5.4161    1.0305   -0.9969 N   0  0  0  0  0  0  0  0  0  0  0  0
    4.8243    0.9107   -2.2967 C   0  0  0  0  0  0  0  0  0  0  0  0
    4.1496   -0.4402   -2.4763 C   0  0  2  0  0  0  0  0  0  0  0  0
    2.8162   -0.4225   -1.7955 C   0  0  0  0  0  0  0  0  0  0  0  0
    1.9089    0.5758   -2.3034 N   0  0  0  0  0  0  0  0  0  0  0  0
    0.6192    0.7143   -1.7575 C   0  0  0  0  0  0  0  0  0  0  0  0
    0.1774   -0.0965   -0.7329 C   0  0  0  0  0  0  0  0  0  0  0  0
   -1.0897    0.0335   -0.1902 C   0  0  0  0  0  0  0  0  0  0  0  0
   -1.9340    0.9895   -0.6767 C   0  0  0  0  0  0  0  0  0  0  0  0
   -3.2616    1.1312   -0.1148 C   0  0  0  0  0  0  0  0  0  0  0  0
   -4.0108    2.0554   -0.5830 O   0  0  0  0  0  0  0  0  0  0  0  0
   -3.7930    0.3337    0.9046 N   0  0  0  0  0  0  0  0  0  0  0  0
   -5.1340    0.5670    1.3886 C   0  0  1  0  0  0  0  0  0  0  0  0
   -5.9446   -0.6449    0.9600 C   0  0  0  0  0  0  0  0  0  0  0  0
   -7.3771   -0.5942    1.3698 C   0  0  0  0  0  0  0  0  0  0  0  0
   -8.0276   -1.8551    0.8619 C   0  0  0  0  0  0  0  0  0  0  0  0
   -9.2361   -2.0579    1.0779 O   0  0  0  0  0  0  0  0  0  0  0  0
   -7.3123   -2.8080    0.1526 O   0  0  0  0  0  0  0  0  0  0  0  0
   -5.1590    0.8045    2.8353 C   0  0  0  0  0  0  0  0  0  0  0  0
   -4.0924    0.7718    3.4859 O   0  0  0  0  0  0  0  0  0  0  0  0
   -6.3401    1.0641    3.4910 O   0  0  0  0  0  0  0  0  0  0  0  0
   -1.5198    1.8315   -1.7172 C   0  0  0  0  0  0  0  0  0  0  0  0
   -0.2411    1.6730   -2.2383 C   0  0  0  0  0  0  0  0  0  0  0  0
    4.9240   -1.5091   -1.8876 N   0  0  0  0  0  0  0  0  0  0  0  0
    6.5782   -0.8647    3.9480 H   0  0  0  0  0  0  0  0  0  0  0  0
    8.1673   -0.4671    3.1180 H   0  0  0  0  0  0  0  0  0  0  0  0
    6.4643    1.0931    1.3646 H   0  0  0  0  0  0  0  0  0  0  0  0
    5.6200    2.0037   -0.6405 H   0  0  0  0  0  0  0  0  0  0  0  0
    5.5665    1.0668   -3.1160 H   0  0  0  0  0  0  0  0  0  0  0  0
    4.0489    1.6937   -2.3822 H   0  0  0  0  0  0  0  0  0  0  0  0
    3.9787   -0.6175   -3.5627 H   0  0  0  0  0  0  0  0  0  0  0  0
    2.9514   -0.2663   -0.6896 H   0  0  0  0  0  0  0  0  0  0  0  0
    2.3863   -1.4600   -1.9082 H   0  0  0  0  0  0  0  0  0  0  0  0
    2.2061    1.1961   -3.0769 H   0  0  0  0  0  0  0  0  0  0  0  0
    0.8603   -0.8550   -0.3539 H   0  0  0  0  0  0  0  0  0  0  0  0
   -1.3868   -0.6151    0.5999 H   0  0  0  0  0  0  0  0  0  0  0  0
   -3.2315   -0.4280    1.3188 H   0  0  0  0  0  0  0  0  0  0  0  0
   -5.5550    1.4291    0.8130 H   0  0  0  0  0  0  0  0  0  0  0  0
   -5.4544   -1.5236    1.4127 H   0  0  0  0  0  0  0  0  0  0  0  0
   -5.9007   -0.6682   -0.1495 H   0  0  0  0  0  0  0  0  0  0  0  0
   -7.5041   -0.6582    2.4795 H   0  0  0  0  0  0  0  0  0  0  0  0
   -7.8929    0.2997    0.9976 H   0  0  0  0  0  0  0  0  0  0  0  0
   -7.7433   -3.4812   -0.4712 H   0  0  0  0  0  0  0  0  0  0  0  0
   -6.4387    1.0521    4.5052 H   0  0  0  0  0  0  0  0  0  0  0  0
   -2.2140    2.5635   -2.0644 H   0  0  0  0  0  0  0  0  0  0  0  0
    0.0513    2.3278   -3.0318 H   0  0  0  0  0  0  0  0  0  0  0  0
    5.0570   -2.3952   -2.4049 H   0  0  0  0  0  0  0  0  0  0  0  0
  1  2  1  0
  2  3  2  0
  3  4  1  0
  4  5  2  0
  4  6  1  0
  6  7  2  0
  7  8  1  0
  7  9  1  0
  9 10  1  0
 10 11  1  0
 11 12  1  0
 12 13  1  0
 13 14  1  0
 14 15  2  0
 15 16  1  0
 16 17  2  0
 17 18  1  0
 18 19  2  0
 18 20  1  0
 20 21  1  0
 21 22  1  0
 22 23  1  0
 23 24  1  0
 24 25  2  0
 24 26  1  0
 21 27  1  0
 27 28  2  0
 27 29  1  0
 17 30  1  0
 30 31  2  0
 11 32  1  0
  8  2  1  0
 31 14  1  0
 32  6  1  0
  1 33  1  0
  1 34  1  0
  8 35  1  0
  9 36  1  0
 10 37  1  0
 10 38  1  0
 11 39  1  6
 12 40  1  0
 12 41  1  0
 13 42  1  0
 15 43  1  0
 16 44  1  0
 20 45  1  0
 21 46  1  6
 22 47  1  0
 22 48  1  0
 23 49  1  0
 23 50  1  0
 26 51  1  0
 29 52  1  0
 30 53  1  0
 31 54  1  0
 32 55  1  0
M  END
$$$$

     RDKit          3D

 55 57  0  0  0  0  0  0  0  0999 V2000
    9.2438   -1.0932    0.5422 N   0  0  0  0  0  0  0  0  0  0  0  0
    7.9382   -0.8944    0.0173 C   0  0  0  0  0  0  0  0  0  0  0  0
    7.5607   -1.4003   -1.1725 N   0  0  0  0  0  0  0  0  0  0  0  0
    6.3429   -1.2290   -1.6882 C   0  0  0  0  0  0  0  0  0  0  0  0
    6.0014   -1.7036   -2.7958 O   0  0  0  0  0  0  0  0  0  0  0  0
    5.4143   -0.5016   -0.9817 C   0  0  0  0  0  0  0  0  0  0  0  0
    5.7669    0.0303    0.2392 C   0  0  0  0  0  0  0  0  0  0  0  0
    7.0006   -0.1805    0.6927 N   0  0  0  0  0  0  0  0  0  0  0  0
    4.8174    0.7853    0.9828 N   0  0  0  0  0  0  0  0  0  0  0  0
    3.6100    1.2831    0.3518 C   0  0  0  0  0  0  0  0  0  0  0  0
    3.0863    0.1231   -0.5165 C   0  0  2  0  0  0  0  0  0  0  0  0
    2.8046   -0.9901    0.4896 C   0  0  0  0  0  0  0  0  0  0  0  0
    1.8171   -0.4955    1.4123 N   0  0  0  0  0  0  0  0  0  0  0  0
    0.4837   -0.2640    0.9163 C   0  0  0  0  0  0  0  0  0  0  0  0
   -0.4213    0.4542    1.6482 C   0  0  0  0  0  0  0  0  0  0  0  0
   -1.7008    0.6514    1.1690 C   0  0  0  0  0  0  0  0  0  0  0  0
   -2.1139    0.1472   -0.0363 C   0  0  0  0  0  0  0  0  0  0  0  0
   -3.4496    0.3429   -0.5546 C   0  0  0  0  0  0  0  0  0  0  0  0
   -3.7559   -0.1222   -1.7002 O   0  0  0  0  0  0  0  0  0  0  0  0
   -4.4269    1.0359    0.1730 N   0  0  0  0  0  0  0  0  0  0  0  0
   -5.7618    1.2134   -0.3826 C   0  0  1  0  0  0  0  0  0  0  0  0
   -6.7335    0.6300    0.6093 C   0  0  0  0  0  0  0  0  0  0  0  0
   -6.5172   -0.8308    0.8834 C   0  0  0  0  0  0  0  0  0  0  0  0
   -6.6586   -1.6879   -0.3045 C   0  0  0  0  0  0  0  0  0  0  0  0
   -6.9562   -1.2477   -1.4276 O   0  0  0  0  0  0  0  0  0  0  0  0
   -6.4515   -3.0627   -0.1785 O   0  0  0  0  0  0  0  0  0  0  0  0
   -6.0609    2.6747   -0.4664 C   0  0  0  0  0  0  0  0  0  0  0  0
   -5.2072    3.4819   -0.0846 O   0  0  0  0  0  0  0  0  0  0  0  0
   -7.2867    3.0940   -0.9695 O   0  0  0  0  0  0  0  0  0  0  0  0
   -1.1924   -0.5743   -0.7629 C   0  0  0  0  0  0  0  0  0  0  0  0
    0.1055   -0.7841   -0.2943 C   0  0  0  0  0  0  0  0  0  0  0  0
    4.0966   -0.2707   -1.4556 N   0  0  0  0  0  0  0  0  0  0  0  0
    9.4225   -1.0210    1.5658 H   0  0  0  0  0  0  0  0  0  0  0  0
   10.0242   -1.3100   -0.0836 H   0  0  0  0  0  0  0  0  0  0  0  0
    7.2604    0.2202    1.6085 H   0  0  0  0  0  0  0  0  0  0  0  0
    5.0456    0.9506    1.9874 H   0  0  0  0  0  0  0  0  0  0  0  0
    3.8975    2.1273   -0.3317 H   0  0  0  0  0  0  0  0  0  0  0  0
    2.8538    1.5696    1.0852 H   0  0  0  0  0  0  0  0  0  0  0  0
    2.1659    0.4828   -0.9924 H   0  0  0  0  0  0  0  0  0  0  0  0
    3.7699   -1.1996    1.0427 H   0  0  0  0  0  0  0  0  0  0  0  0
    2.4861   -1.9207   -0.0151 H   0  0  0  0  0  0  0  0  0  0  0  0
    2.0199   -0.3022    2.3999 H   0  0  0  0  0  0  0  0  0  0  0  0
   -0.1350    0.8748    2.6153 H   0  0  0  0  0  0  0  0  0  0  0  0
   -2.3961    1.2392    1.7969 H   0  0  0  0  0  0  0  0  0  0  0  0
   -4.2419    1.4373    1.1094 H   0  0  0  0  0  0  0  0  0  0  0  0
   -5.8143    0.7470   -1.3644 H   0  0  0  0  0  0  0  0  0  0  0  0
   -7.7512    0.7830    0.1923 H   0  0  0  0  0  0  0  0  0  0  0  0
   -6.6386    1.2023    1.5645 H   0  0  0  0  0  0  0  0  0  0  0  0
   -5.4569   -0.9636    1.2519 H   0  0  0  0  0  0  0  0  0  0  0  0
   -7.2031   -1.1820    1.6756 H   0  0  0  0  0  0  0  0  0  0  0  0
   -6.4415   -3.6467   -1.0160 H   0  0  0  0  0  0  0  0  0  0  0  0
   -7.4718    4.0734   -1.0569 H   0  0  0  0  0  0  0  0  0  0  0  0
   -1.4716   -1.0000   -1.7345 H   0  0  0  0  0  0  0  0  0  0  0  0
    0.7714   -1.3814   -0.9335 H   0  0  0  0  0  0  0  0  0  0  0  0
    3.9095   -0.3950   -2.4672 H   0  0  0  0  0  0  0  0  0  0  0  0
  1  2  1  0
  2  3  2  0
  3  4  1  0
  4  5  2  0
  4  6  1  0
  6  7  2  0
  7  8  1  0
  7  9  1  0
  9 10  1  0
 10 11  1  0
 11 12  1  0
 12 13  1  0
 13 14  1  0
 14 15  2  0
 15 16  1  0
 16 17  2  0
 17 18  1  0
 18 19  2  0
 18 20  1  0
 20 21  1  0
 21 22  1  0
 22 23  1  0
 23 24  1  0
 24 25  2  0
 24 26  1  0
 21 27  1  0
 27 28  2  0
 27 29  1  0
 17 30  1  0
 30 31  2  0
 11 32  1  0
  8  2  1  0
 31 14  1  0
 32  6  1  0
  1 33  1  0
  1 34  1  0
  8 35  1  0
  9 36  1  0
 10 37  1  0
 10 38  1  0
 11 39  1  6
 12 40  1  0
 12 41  1  0
 13 42  1  0
 15 43  1  0
 16 44  1  0
 20 45  1  0
 21 46  1  6
 22 47  1  0
 22 48  1  0
 23 49  1  0
 23 50  1  0
 26 51  1  0
 29 52  1  0
 30 53  1  0
 31 54  1  0
 32 55  1  0
M  END
$$$$

     RDKit          3D

 55 57  0  0  0  0  0  0  0  0999 V2000
   -8.8160   -0.5747   -1.4540 N   0  0  0  0  0  0  0  0  0  0  0  0
   -7.4345   -0.6079   -1.1561 C   0  0  0  0  0  0  0  0  0  0  0  0
   -6.5318   -0.0812   -2.0170 N   0  0  0  0  0  0  0  0  0  0  0  0
   -5.2131   -0.1037   -1.7552 C   0  0  0  0  0  0  0  0  0  0  0  0
   -4.3663    0.3859   -2.5515 O   0  0  0  0  0  0  0  0  0  0  0  0
   -4.8137   -0.6871   -0.5710 C   0  0  0  0  0  0  0  0  0  0  0  0
   -5.7095   -1.2314    0.3229 C   0  0  0  0  0  0  0  0  0  0  0  0
   -7.0188   -1.1798    0.0089 N   0  0  0  0  0  0  0  0  0  0  0  0
   -5.2379   -1.8190    1.5264 N   0  0  0  0  0  0  0  0  0  0  0  0
   -3.8442   -1.8688    1.8930 C   0  0  0  0  0  0  0  0  0  0  0  0
   -3.0458   -0.8321    1.1367 C   0  0  2  0  0  0  0  0  0  0  0  0
   -3.2931    0.5726    1.7122 C   0  0  0  0  0  0  0  0  0  0  0  0
   -2.4846    1.4616    0.9140 N   0  0  0  0  0  0  0  0  0  0  0  0
   -1.0658    1.3403    0.9870 C   0  0  0  0  0  0  0  0  0  0  0  0
   -0.4195    0.6611    1.9959 C   0  0  0  0  0  0  0  0  0  0  0  0
    0.9646    0.5320    2.0174 C   0  0  0  0  0  0  0  0  0  0  0  0
    1.7656    1.0742    1.0357 C   0  0  0  0  0  0  0  0  0  0  0  0
    3.2271    0.9092    1.0936 C   0  0  0  0  0  0  0  0  0  0  0  0
    3.8075    0.5973    2.1389 O   0  0  0  0  0  0  0  0  0  0  0  0
    3.9862    1.1114   -0.0845 N   0  0  0  0  0  0  0  0  0  0  0  0
    5.4274    0.9528   -0.0624 C   0  0  1  0  0  0  0  0  0  0  0  0
    5.7520   -0.3507   -0.7427 C   0  0  0  0  0  0  0  0  0  0  0  0
    7.2141   -0.6427   -0.8138 C   0  0  0  0  0  0  0  0  0  0  0  0
    7.3789   -1.9865   -1.4741 C   0  0  0  0  0  0  0  0  0  0  0  0
    6.7519   -2.9517   -1.0142 O   0  0  0  0  0  0  0  0  0  0  0  0
    8.2243   -2.1378   -2.5888 O   0  0  0  0  0  0  0  0  0  0  0  0
    6.0665    2.1334   -0.6310 C   0  0  0  0  0  0  0  0  0  0  0  0
    5.4118    3.1107   -1.1013 O   0  0  0  0  0  0  0  0  0  0  0  0
    7.4479    2.2403   -0.6803 O   0  0  0  0  0  0  0  0  0  0  0  0
    1.1235    1.7555    0.0266 C   0  0  0  0  0  0  0  0  0  0  0  0
   -0.2568    1.8884   -0.0020 C   0  0  0  0  0  0  0  0  0  0  0  0
   -3.4346   -0.7359   -0.2553 N   0  0  0  0  0  0  0  0  0  0  0  0
   -9.1217   -0.0661   -2.3232 H   0  0  0  0  0  0  0  0  0  0  0  0
   -9.5038   -1.0425   -0.8256 H   0  0  0  0  0  0  0  0  0  0  0  0
   -7.6891   -1.5941    0.6960 H   0  0  0  0  0  0  0  0  0  0  0  0
   -5.9204   -2.2303    2.1756 H   0  0  0  0  0  0  0  0  0  0  0  0
   -3.4528   -2.8826    1.6850 H   0  0  0  0  0  0  0  0  0  0  0  0
   -3.7040   -1.6595    2.9786 H   0  0  0  0  0  0  0  0  0  0  0  0
   -1.9786   -1.1055    1.1373 H   0  0  0  0  0  0  0  0  0  0  0  0
   -4.3514    0.8451    1.6302 H   0  0  0  0  0  0  0  0  0  0  0  0
   -3.0525    0.6031    2.7961 H   0  0  0  0  0  0  0  0  0  0  0  0
   -2.9373    2.1559    0.3138 H   0  0  0  0  0  0  0  0  0  0  0  0
   -1.0055    0.2301    2.7956 H   0  0  0  0  0  0  0  0  0  0  0  0
    1.4690   -0.0115    2.8317 H   0  0  0  0  0  0  0  0  0  0  0  0
    3.5146    1.3717   -0.9693 H   0  0  0  0  0  0  0  0  0  0  0  0
    5.7469    0.7971    1.0161 H   0  0  0  0  0  0  0  0  0  0  0  0
    5.3246   -0.3940   -1.7767 H   0  0  0  0  0  0  0  0  0  0  0  0
    5.2761   -1.2183   -0.2146 H   0  0  0  0  0  0  0  0  0  0  0  0
    7.6130   -0.6330    0.1999 H   0  0  0  0  0  0  0  0  0  0  0  0
    7.7241    0.1183   -1.4447 H   0  0  0  0  0  0  0  0  0  0  0  0
    8.3931   -3.0411   -2.9940 H   0  0  0  0  0  0  0  0  0  0  0  0
    7.8827    2.8952   -1.3330 H   0  0  0  0  0  0  0  0  0  0  0  0
    1.7188    2.2024   -0.7653 H   0  0  0  0  0  0  0  0  0  0  0  0
   -0.7793    2.4230   -0.7920 H   0  0  0  0  0  0  0  0  0  0  0  0
   -2.7297   -0.6993   -1.0295 H   0  0  0  0  0  0  0  0  0  0  0  0
  1  2  1  0
  2  3  2  0
  3  4  1  0
  4  5  2  0
  4  6  1  0
  6  7  2  0
  7  8  1  0
  7  9  1  0
  9 10  1  0
 10 11  1  0
 11 12  1  0
 12 13  1  0
 13 14  1  0
 14 15  2  0
 15 16  1  0
 16 17  2  0
 17 18  1  0
 18 19  2  0
 18 20  1  0
 20 21  1  0
 21 22  1  0
 22 23  1  0
 23 24  1  0
 24 25  2  0
 24 26  1  0
 21 27  1  0
 27 28  2  0
 27 29  1  0
 17 30  1  0
 30 31  2  0
 11 32  1  0
  8  2  1  0
 31 14  1  0
 32  6  1  0
  1 33  1  0
  1 34  1  0
  8 35  1  0
  9 36  1  0
 10 37  1  0
 10 38  1  0
 11 39  1  6
 12 40  1  0
 12 41  1  0
 13 42  1  0
 15 43  1  0
 16 44  1  0
 20 45  1  0
 21 46  1  1
 22 47  1  0
 22 48  1  0
 23 49  1  0
 23 50  1  0
 26 51  1  0
 29 52  1  0
 30 53  1  0
 31 54  1  0
 32 55  1  0
M  END
$$$$

     RDKit          3D

 55 57  0  0  0  0  0  0  0  0999 V2000
    9.3988    0.6048   -1.4108 N   0  0  0  0  0  0  0  0  0  0  0  0
    8.2002    0.1417   -0.7630 C   0  0  0  0  0  0  0  0  0  0  0  0
    8.2183   -0.3438    0.4895 N   0  0  0  0  0  0  0  0  0  0  0  0
    7.1142   -0.7770    1.1153 C   0  0  0  0  0  0  0  0  0  0  0  0
    7.1087   -1.2339    2.2844 O   0  0  0  0  0  0  0  0  0  0  0  0
    5.9026   -0.7245    0.4499 C   0  0  0  0  0  0  0  0  0  0  0  0
    5.8944   -0.2253   -0.8341 C   0  0  0  0  0  0  0  0  0  0  0  0
    7.0404    0.2034   -1.4303 N   0  0  0  0  0  0  0  0  0  0  0  0
    4.6546   -0.1671   -1.5203 N   0  0  0  0  0  0  0  0  0  0  0  0
    3.5370   -0.9036   -0.9853 C   0  0  0  0  0  0  0  0  0  0  0  0
    3.4126   -0.7796    0.5235 C   0  0  2  0  0  0  0  0  0  0  0  0
    3.1224    0.6425    0.9383 C   0  0  0  0  0  0  0  0  0  0  0  0
    1.9227    1.1878    0.4108 N   0  0  0  0  0  0  0  0  0  0  0  0
    0.5965    0.7741    0.7166 C   0  0  0  0  0  0  0  0  0  0  0  0
    0.3070   -0.0924    1.7363 C   0  0  0  0  0  0  0  0  0  0  0  0
   -1.0213   -0.4629    1.9693 C   0  0  0  0  0  0  0  0  0  0  0  0
   -2.0676    0.0145    1.2040 C   0  0  0  0  0  0  0  0  0  0  0  0
   -3.4490   -0.3591    1.4418 C   0  0  0  0  0  0  0  0  0  0  0  0
   -3.7659   -0.9302    2.5422 O   0  0  0  0  0  0  0  0  0  0  0  0
   -4.4524   -0.1139    0.4983 N   0  0  0  0  0  0  0  0  0  0  0  0
   -5.8344   -0.4788    0.7223 C   0  0  1  0  0  0  0  0  0  0  0  0
   -6.7537    0.6880    0.7995 C   0  0  0  0  0  0  0  0  0  0  0  0
   -6.8027    1.5610   -0.4105 C   0  0  0  0  0  0  0  0  0  0  0  0
   -7.2429    0.8404   -1.6029 C   0  0  0  0  0  0  0  0  0  0  0  0
   -6.4066    0.3908   -2.4128 O   0  0  0  0  0  0  0  0  0  0  0  0
   -8.6018    0.6482   -1.8464 O   0  0  0  0  0  0  0  0  0  0  0  0
   -6.2602   -1.5652   -0.1798 C   0  0  0  0  0  0  0  0  0  0  0  0
   -5.4198   -2.0796   -0.9651 O   0  0  0  0  0  0  0  0  0  0  0  0
   -7.5565   -2.0243   -0.1777 O   0  0  0  0  0  0  0  0  0  0  0  0
   -1.7553    0.8782    0.1921 C   0  0  0  0  0  0  0  0  0  0  0  0
   -0.4452    1.2459   -0.0402 C   0  0  0  0  0  0  0  0  0  0  0  0
    4.6923   -1.1668    1.0682 N   0  0  0  0  0  0  0  0  0  0  0  0
   10.0001    0.0090   -1.9888 H   0  0  0  0  0  0  0  0  0  0  0  0
    9.6556    1.6237   -1.2682 H   0  0  0  0  0  0  0  0  0  0  0  0
    6.9990    0.5832   -2.4224 H   0  0  0  0  0  0  0  0  0  0  0  0
    4.6013    0.4091   -2.3902 H   0  0  0  0  0  0  0  0  0  0  0  0
    2.5898   -0.6903   -1.4982 H   0  0  0  0  0  0  0  0  0  0  0  0
    3.7525   -1.9924   -1.1747 H   0  0  0  0  0  0  0  0  0  0  0  0
    2.6183   -1.4295    0.8562 H   0  0  0  0  0  0  0  0  0  0  0  0
    3.9896    1.2659    0.6461 H   0  0  0  0  0  0  0  0  0  0  0  0
    3.0715    0.6394    2.0503 H   0  0  0  0  0  0  0  0  0  0  0  0
    2.0288    1.9898   -0.2852 H   0  0  0  0  0  0  0  0  0  0  0  0
    1.0881   -0.4870    2.3668 H   0  0  0  0  0  0  0  0  0  0  0  0
   -1.2564   -1.1520    2.7787 H   0  0  0  0  0  0  0  0  0  0  0  0
   -4.2264    0.3401   -0.4006 H   0  0  0  0  0  0  0  0  0  0  0  0
   -5.8299   -0.9332    1.7771 H   0  0  0  0  0  0  0  0  0  0  0  0
   -6.4717    1.3126    1.6976 H   0  0  0  0  0  0  0  0  0  0  0  0
   -7.8191    0.3772    1.0012 H   0  0  0  0  0  0  0  0  0  0  0  0
   -7.5739    2.3533   -0.2154 H   0  0  0  0  0  0  0  0  0  0  0  0
   -5.8260    2.0772   -0.5733 H   0  0  0  0  0  0  0  0  0  0  0  0
   -8.8959   -0.2134   -2.3132 H   0  0  0  0  0  0  0  0  0  0  0  0
   -7.7987   -2.9505   -0.5396 H   0  0  0  0  0  0  0  0  0  0  0  0
   -2.5052    1.2977   -0.4456 H   0  0  0  0  0  0  0  0  0  0  0  0
   -0.2365    1.9416   -0.8632 H   0  0  0  0  0  0  0  0  0  0  0  0
    4.7578   -1.7651    1.9062 H   0  0  0  0  0  0  0  0  0  0  0  0
  1  2  1  0
  2  3  2  0
  3  4  1  0
  4  5  2  0
  4  6  1  0
  6  7  2  0
  7  8  1  0
  7  9  1  0
  9 10  1  0
 10 11  1  0
 11 12  1  0
 12 13  1  0
 13 14  1  0
 14 15  2  0
 15 16  1  0
 16 17  2  0
 17 18  1  0
 18 19  2  0
 18 20  1  0
 20 21  1  0
 21 22  1  0
 22 23  1  0
 23 24  1  0
 24 25  2  0
 24 26  1  0
 21 27  1  0
 27 28  2  0
 27 29  1  0
 17 30  1  0
 30 31  2  0
 11 32  1  0
  8  2  1  0
 31 14  1  0
 32  6  1  0
  1 33  1  0
  1 34  1  0
  8 35  1  0
  9 36  1  0
 10 37  1  0
 10 38  1  0
 11 39  1  1
 12 40  1  0
 12 41  1  0
 13 42  1  0
 15 43  1  0
 16 44  1  0
 20 45  1  0
 21 46  1  1
 22 47  1  0
 22 48  1  0
 23 49  1  0
 23 50  1  0
 26 51  1  0
 29 52  1  0
 30 53  1  0
 31 54  1  0
 32 55  1  0
M  END
$$$$

     RDKit          3D

 55 57  0  0  0  0  0  0  0  0999 V2000
   10.2975    0.9533    0.9787 N   0  0  0  0  0  0  0  0  0  0  0  0
    8.9772    0.4386    0.7717 C   0  0  0  0  0  0  0  0  0  0  0  0
    8.7375   -0.8725    0.5893 N   0  0  0  0  0  0  0  0  0  0  0  0
    7.4713   -1.3061    0.3977 C   0  0  0  0  0  0  0  0  0  0  0  0
    7.2018   -2.5363    0.2215 O   0  0  0  0  0  0  0  0  0  0  0  0
    6.3968   -0.4430    0.3815 C   0  0  0  0  0  0  0  0  0  0  0  0
    6.6740    0.8988    0.5717 C   0  0  0  0  0  0  0  0  0  0  0  0
    7.9448    1.3080    0.7609 N   0  0  0  0  0  0  0  0  0  0  0  0
    5.5686    1.7874    0.5548 N   0  0  0  0  0  0  0  0  0  0  0  0
    4.2306    1.2821    0.6888 C   0  0  0  0  0  0  0  0  0  0  0  0
    4.0715    0.0957   -0.2453 C   0  0  2  0  0  0  0  0  0  0  0  0
    2.7061   -0.5429   -0.0874 C   0  0  0  0  0  0  0  0  0  0  0  0
    1.6544    0.3960   -0.3851 N   0  0  0  0  0  0  0  0  0  0  0  0
    0.3044   -0.0200   -0.2949 C   0  0  0  0  0  0  0  0  0  0  0  0
   -0.7516    0.8438   -0.5617 C   0  0  0  0  0  0  0  0  0  0  0  0
   -2.0658    0.4043   -0.4651 C   0  0  0  0  0  0  0  0  0  0  0  0
   -2.3832   -0.8824   -0.1078 C   0  0  0  0  0  0  0  0  0  0  0  0
   -3.7445   -1.3832    0.0052 C   0  0  0  0  0  0  0  0  0  0  0  0
   -3.9395   -2.5964    0.3113 O   0  0  0  0  0  0  0  0  0  0  0  0
   -4.9076   -0.6116   -0.2027 N   0  0  0  0  0  0  0  0  0  0  0  0
   -6.2673   -1.0935   -0.0948 C   0  0  1  0  0  0  0  0  0  0  0  0
   -6.9929   -0.5464    1.0764 C   0  0  0  0  0  0  0  0  0  0  0  0
   -7.1230    0.9134    1.2145 C   0  0  0  0  0  0  0  0  0  0  0  0
   -7.8007    1.6902    0.2046 C   0  0  0  0  0  0  0  0  0  0  0  0
   -7.8341    2.9524    0.3668 O   0  0  0  0  0  0  0  0  0  0  0  0
   -8.4192    1.2221   -0.9200 O   0  0  0  0  0  0  0  0  0  0  0  0
   -7.0189   -1.1533   -1.3450 C   0  0  0  0  0  0  0  0  0  0  0  0
   -6.6049   -0.7388   -2.4535 O   0  0  0  0  0  0  0  0  0  0  0  0
   -8.2944   -1.7187   -1.3105 O   0  0  0  0  0  0  0  0  0  0  0  0
   -1.3285   -1.7300    0.1543 C   0  0  0  0  0  0  0  0  0  0  0  0
   -0.0106   -1.3121    0.0640 C   0  0  0  0  0  0  0  0  0  0  0  0
    5.0583   -0.8901    0.1800 N   0  0  0  0  0  0  0  0  0  0  0  0
   10.8148    1.4993    0.2573 H   0  0  0  0  0  0  0  0  0  0  0  0
   10.7858    0.7880    1.8839 H   0  0  0  0  0  0  0  0  0  0  0  0
    8.1446    2.3340    0.9049 H   0  0  0  0  0  0  0  0  0  0  0  0
    5.7585    2.8014    0.4437 H   0  0  0  0  0  0  0  0  0  0  0  0
    3.4889    2.0756    0.4675 H   0  0  0  0  0  0  0  0  0  0  0  0
    4.0284    0.9592    1.7395 H   0  0  0  0  0  0  0  0  0  0  0  0
    4.2604    0.4606   -1.2736 H   0  0  0  0  0  0  0  0  0  0  0  0
    2.6310   -0.9048    0.9455 H   0  0  0  0  0  0  0  0  0  0  0  0
    2.6462   -1.3697   -0.8236 H   0  0  0  0  0  0  0  0  0  0  0  0
    1.9061    1.3611   -0.6604 H   0  0  0  0  0  0  0  0  0  0  0  0
   -0.5419    1.8639   -0.8460 H   0  0  0  0  0  0  0  0  0  0  0  0
   -2.8970    1.0789   -0.6732 H   0  0  0  0  0  0  0  0  0  0  0  0
   -4.7945    0.3933   -0.4564 H   0  0  0  0  0  0  0  0  0  0  0  0
   -6.1100   -2.2096    0.1802 H   0  0  0  0  0  0  0  0  0  0  0  0
   -8.0463   -0.9705    1.0519 H   0  0  0  0  0  0  0  0  0  0  0  0
   -6.5902   -0.9423    2.0457 H   0  0  0  0  0  0  0  0  0  0  0  0
   -7.7142    1.0768    2.1823 H   0  0  0  0  0  0  0  0  0  0  0  0
   -6.1308    1.4004    1.4870 H   0  0  0  0  0  0  0  0  0  0  0  0
   -8.6489    1.8561   -1.6920 H   0  0  0  0  0  0  0  0  0  0  0  0
   -8.9041   -1.7240   -2.1174 H   0  0  0  0  0  0  0  0  0  0  0  0
   -1.5377   -2.7561    0.4400 H   0  0  0  0  0  0  0  0  0  0  0  0
    0.8185   -1.9818    0.2706 H   0  0  0  0  0  0  0  0  0  0  0  0
    4.8242   -1.8987    0.3404 H   0  0  0  0  0  0  0  0  0  0  0  0
  1  2  1  0
  2  3  2  0
  3  4  1  0
  4  5  2  0
  4  6  1  0
  6  7  2  0
  7  8  1  0
  7  9  1  0
  9 10  1  0
 10 11  1  0
 11 12  1  0
 12 13  1  0
 13 14  1  0
 14 15  2  0
 15 16  1  0
 16 17  2  0
 17 18  1  0
 18 19  2  0
 18 20  1  0
 20 21  1  0
 21 22  1  0
 22 23  1  0
 23 24  1  0
 24 25  2  0
 24 26  1  0
 21 27  1  0
 27 28  2  0
 27 29  1  0
 17 30  1  0
 30 31  2  0
 11 32  1  0
  8  2  1  0
 31 14  1  0
 32  6  1  0
  1 33  1  0
  1 34  1  0
  8 35  1  0
  9 36  1  0
 10 37  1  0
 10 38  1  0
 11 39  1  6
 12 40  1  0
 12 41  1  0
 13 42  1  0
 15 43  1  0
 16 44  1  0
 20 45  1  0
 21 46  1  1
 22 47  1  0
 22 48  1  0
 23 49  1  0
 23 50  1  0
 26 51  1  0
 29 52  1  0
 30 53  1  0
 31 54  1  0
 32 55  1  0
M  END
$$$$

     RDKit          3D

 55 57  0  0  0  0  0  0  0  0999 V2000
    9.5996   -0.9099    1.5539 N   0  0  0  0  0  0  0  0  0  0  0  0
    8.2281   -1.0066    1.1329 C   0  0  0  0  0  0  0  0  0  0  0  0
    7.4055   -1.9493    1.6272 N   0  0  0  0  0  0  0  0  0  0  0  0
    6.1188   -2.0186    1.2141 C   0  0  0  0  0  0  0  0  0  0  0  0
    5.3270   -2.9004    1.6684 O   0  0  0  0  0  0  0  0  0  0  0  0
    5.6025   -1.1398    0.2831 C   0  0  0  0  0  0  0  0  0  0  0  0
    6.4617   -0.1810   -0.2115 C   0  0  0  0  0  0  0  0  0  0  0  0
    7.7383   -0.1434    0.2247 N   0  0  0  0  0  0  0  0  0  0  0  0
    5.9493    0.7322   -1.1698 N   0  0  0  0  0  0  0  0  0  0  0  0
    4.4939    0.8910   -1.3076 C   0  0  0  0  0  0  0  0  0  0  0  0
    3.9242   -0.4922   -1.4080 C   0  0  2  0  0  0  0  0  0  0  0  0
    2.4578   -0.5232   -1.6751 C   0  0  0  0  0  0  0  0  0  0  0  0
    1.6806    0.1329   -0.6465 N   0  0  0  0  0  0  0  0  0  0  0  0
    0.2768    0.2348   -0.6778 C   0  0  0  0  0  0  0  0  0  0  0  0
   -0.3921    0.8706    0.3345 C   0  0  0  0  0  0  0  0  0  0  0  0
   -1.7852    0.9813    0.3190 C   0  0  0  0  0  0  0  0  0  0  0  0
   -2.5213    0.4547   -0.7136 C   0  0  0  0  0  0  0  0  0  0  0  0
   -3.9723    0.5365   -0.7896 C   0  0  0  0  0  0  0  0  0  0  0  0
   -4.5981    0.0408   -1.7659 O   0  0  0  0  0  0  0  0  0  0  0  0
   -4.7558    1.1637    0.2053 N   0  0  0  0  0  0  0  0  0  0  0  0
   -6.2156    1.2239    0.0885 C   0  0  1  0  0  0  0  0  0  0  0  0
   -6.8208    0.5945    1.2974 C   0  0  0  0  0  0  0  0  0  0  0  0
   -6.4567   -0.8464    1.5179 C   0  0  0  0  0  0  0  0  0  0  0  0
   -6.8743   -1.7519    0.4326 C   0  0  0  0  0  0  0  0  0  0  0  0
   -7.5087   -1.3048   -0.5424 O   0  0  0  0  0  0  0  0  0  0  0  0
   -6.5578   -3.0852    0.5087 O   0  0  0  0  0  0  0  0  0  0  0  0
   -6.6024    2.6683    0.0497 C   0  0  0  0  0  0  0  0  0  0  0  0
   -5.7186    3.5513    0.1160 O   0  0  0  0  0  0  0  0  0  0  0  0
   -7.9209    3.0459   -0.0583 O   0  0  0  0  0  0  0  0  0  0  0  0
   -1.8340   -0.1908   -1.7400 C   0  0  0  0  0  0  0  0  0  0  0  0
   -0.4607   -0.2885   -1.7047 C   0  0  0  0  0  0  0  0  0  0  0  0
    4.2560   -1.1974   -0.1618 N   0  0  0  0  0  0  0  0  0  0  0  0
   10.2923   -1.5111    1.0372 H   0  0  0  0  0  0  0  0  0  0  0  0
    9.9255   -0.3014    2.3109 H   0  0  0  0  0  0  0  0  0  0  0  0
    8.3953    0.5895   -0.1532 H   0  0  0  0  0  0  0  0  0  0  0  0
    6.6266    1.2653   -1.7497 H   0  0  0  0  0  0  0  0  0  0  0  0
    4.0875    1.4505   -0.4419 H   0  0  0  0  0  0  0  0  0  0  0  0
    4.3273    1.4640   -2.2378 H   0  0  0  0  0  0  0  0  0  0  0  0
    4.4349   -1.0256   -2.2316 H   0  0  0  0  0  0  0  0  0  0  0  0
    2.2649   -0.1455   -2.6845 H   0  0  0  0  0  0  0  0  0  0  0  0
    2.1411   -1.5956   -1.6654 H   0  0  0  0  0  0  0  0  0  0  0  0
    2.2251    0.5409    0.1458 H   0  0  0  0  0  0  0  0  0  0  0  0
    0.1438    1.3069    1.1789 H   0  0  0  0  0  0  0  0  0  0  0  0
   -2.3074    1.4892    1.1292 H   0  0  0  0  0  0  0  0  0  0  0  0
   -4.3270    1.5972    1.0419 H   0  0  0  0  0  0  0  0  0  0  0  0
   -6.4975    0.7220   -0.8486 H   0  0  0  0  0  0  0  0  0  0  0  0
   -7.9347    0.6589    1.2370 H   0  0  0  0  0  0  0  0  0  0  0  0
   -6.4404    1.1517    2.1893 H   0  0  0  0  0  0  0  0  0  0  0  0
   -5.3687   -0.9494    1.7521 H   0  0  0  0  0  0  0  0  0  0  0  0
   -7.0142   -1.1654    2.4344 H   0  0  0  0  0  0  0  0  0  0  0  0
   -6.4491   -3.6270   -0.3523 H   0  0  0  0  0  0  0  0  0  0  0  0
   -8.2423    4.0067    0.0811 H   0  0  0  0  0  0  0  0  0  0  0  0
   -2.4237   -0.6053   -2.5540 H   0  0  0  0  0  0  0  0  0  0  0  0
    0.0617   -0.7868   -2.4983 H   0  0  0  0  0  0  0  0  0  0  0  0
    3.5541   -1.7231    0.3897 H   0  0  0  0  0  0  0  0  0  0  0  0
  1  2  1  0
  2  3  2  0
  3  4  1  0
  4  5  2  0
  4  6  1  0
  6  7  2  0
  7  8  1  0
  7  9  1  0
  9 10  1  0
 10 11  1  0
 11 12  1  0
 12 13  1  0
 13 14  1  0
 14 15  2  0
 15 16  1  0
 16 17  2  0
 17 18  1  0
 18 19  2  0
 18 20  1  0
 20 21  1  0
 21 22  1  0
 22 23  1  0
 23 24  1  0
 24 25  2  0
 24 26  1  0
 21 27  1  0
 27 28  2  0
 27 29  1  0
 17 30  1  0
 30 31  2  0
 11 32  1  0
  8  2  1  0
 31 14  1  0
 32  6  1  0
  1 33  1  0
  1 34  1  0
  8 35  1  0
  9 36  1  0
 10 37  1  0
 10 38  1  0
 11 39  1  6
 12 40  1  0
 12 41  1  0
 13 42  1  0
 15 43  1  0
 16 44  1  0
 20 45  1  0
 21 46  1  6
 22 47  1  0
 22 48  1  0
 23 49  1  0
 23 50  1  0
 26 51  1  0
 29 52  1  0
 30 53  1  0
 31 54  1  0
 32 55  1  0
M  END
$$$$

     RDKit          3D

 55 57  0  0  0  0  0  0  0  0999 V2000
    9.9555    0.9752    0.1298 N   0  0  0  0  0  0  0  0  0  0  0  0
    8.6290    0.5101    0.2025 C   0  0  0  0  0  0  0  0  0  0  0  0
    8.0917    0.1249    1.3962 N   0  0  0  0  0  0  0  0  0  0  0  0
    6.8252   -0.3194    1.4768 C   0  0  0  0  0  0  0  0  0  0  0  0
    6.3100   -0.6789    2.5647 O   0  0  0  0  0  0  0  0  0  0  0  0
    6.0393   -0.3940    0.3415 C   0  0  0  0  0  0  0  0  0  0  0  0
    6.6122    0.0056   -0.8661 C   0  0  0  0  0  0  0  0  0  0  0  0
    7.8815    0.4438   -0.9055 N   0  0  0  0  0  0  0  0  0  0  0  0
    5.8550   -0.0474   -2.0605 N   0  0  0  0  0  0  0  0  0  0  0  0
    4.4171   -0.1012   -1.9519 C   0  0  0  0  0  0  0  0  0  0  0  0
    4.0602   -1.1449   -0.9345 C   0  0  2  0  0  0  0  0  0  0  0  0
    2.5563   -1.2031   -0.7055 C   0  0  0  0  0  0  0  0  0  0  0  0
    2.0411    0.0451   -0.2195 N   0  0  0  0  0  0  0  0  0  0  0  0
    0.6650    0.2622    0.0498 C   0  0  0  0  0  0  0  0  0  0  0  0
    0.2399    1.4626    0.5756 C   0  0  0  0  0  0  0  0  0  0  0  0
   -1.1135    1.6378    0.8251 C   0  0  0  0  0  0  0  0  0  0  0  0
   -2.0396    0.6568    0.5657 C   0  0  0  0  0  0  0  0  0  0  0  0
   -3.4350    0.8697    0.8445 C   0  0  0  0  0  0  0  0  0  0  0  0
   -3.7656    1.9282    1.4754 O   0  0  0  0  0  0  0  0  0  0  0  0
   -4.4687   -0.0225    0.4633 N   0  0  0  0  0  0  0  0  0  0  0  0
   -5.8959    0.2477    0.7810 C   0  0  1  0  0  0  0  0  0  0  0  0
   -6.5309    0.5338   -0.5266 C   0  0  0  0  0  0  0  0  0  0  0  0
   -7.9808    0.7905   -0.5870 C   0  0  0  0  0  0  0  0  0  0  0  0
   -8.8130   -0.3740   -0.2914 C   0  0  0  0  0  0  0  0  0  0  0  0
   -8.3307   -1.5335   -0.3256 O   0  0  0  0  0  0  0  0  0  0  0  0
  -10.1721   -0.1915    0.0347 O   0  0  0  0  0  0  0  0  0  0  0  0
   -6.4277   -0.7691    1.6506 C   0  0  0  0  0  0  0  0  0  0  0  0
   -5.7770   -1.8456    1.8610 O   0  0  0  0  0  0  0  0  0  0  0  0
   -7.6478   -0.6863    2.3296 O   0  0  0  0  0  0  0  0  0  0  0  0
   -1.5928   -0.5225    0.0452 C   0  0  0  0  0  0  0  0  0  0  0  0
   -0.2357   -0.7405   -0.2216 C   0  0  0  0  0  0  0  0  0  0  0  0
    4.6979   -0.8468    0.3450 N   0  0  0  0  0  0  0  0  0  0  0  0
   10.3345    1.3283   -0.7593 H   0  0  0  0  0  0  0  0  0  0  0  0
   10.5619    0.9661    0.9702 H   0  0  0  0  0  0  0  0  0  0  0  0
    8.3132    0.7471   -1.8294 H   0  0  0  0  0  0  0  0  0  0  0  0
    6.2949   -0.0483   -2.9955 H   0  0  0  0  0  0  0  0  0  0  0  0
    3.9395   -0.4063   -2.9130 H   0  0  0  0  0  0  0  0  0  0  0  0
    4.0165    0.8739   -1.6050 H   0  0  0  0  0  0  0  0  0  0  0  0
    4.4029   -2.1489   -1.2375 H   0  0  0  0  0  0  0  0  0  0  0  0
    2.3701   -1.9863    0.0552 H   0  0  0  0  0  0  0  0  0  0  0  0
    2.0348   -1.4927   -1.6410 H   0  0  0  0  0  0  0  0  0  0  0  0
    2.7303    0.8340   -0.0543 H   0  0  0  0  0  0  0  0  0  0  0  0
    0.9500    2.2568    0.7911 H   0  0  0  0  0  0  0  0  0  0  0  0
   -1.4057    2.5868    1.2353 H   0  0  0  0  0  0  0  0  0  0  0  0
   -4.2079   -0.8860   -0.0522 H   0  0  0  0  0  0  0  0  0  0  0  0
   -5.8585    1.2203    1.3690 H   0  0  0  0  0  0  0  0  0  0  0  0
   -6.2690   -0.3313   -1.2088 H   0  0  0  0  0  0  0  0  0  0  0  0
   -5.9713    1.3936   -0.9778 H   0  0  0  0  0  0  0  0  0  0  0  0
   -8.2197    1.0881   -1.6457 H   0  0  0  0  0  0  0  0  0  0  0  0
   -8.2506    1.6857    0.0217 H   0  0  0  0  0  0  0  0  0  0  0  0
  -10.5980   -0.9537    0.5742 H   0  0  0  0  0  0  0  0  0  0  0  0
   -7.8892   -1.2664    3.0983 H   0  0  0  0  0  0  0  0  0  0  0  0
   -2.2639   -1.3317   -0.1802 H   0  0  0  0  0  0  0  0  0  0  0  0
    0.1367   -1.6622   -0.6315 H   0  0  0  0  0  0  0  0  0  0  0  0
    4.1983   -0.9560    1.2538 H   0  0  0  0  0  0  0  0  0  0  0  0
  1  2  1  0
  2  3  2  0
  3  4  1  0
  4  5  2  0
  4  6  1  0
  6  7  2  0
  7  8  1  0
  7  9  1  0
  9 10  1  0
 10 11  1  0
 11 12  1  0
 12 13  1  0
 13 14  1  0
 14 15  2  0
 15 16  1  0
 16 17  2  0
 17 18  1  0
 18 19  2  0
 18 20  1  0
 20 21  1  0
 21 22  1  0
 22 23  1  0
 23 24  1  0
 24 25  2  0
 24 26  1  0
 21 27  1  0
 27 28  2  0
 27 29  1  0
 17 30  1  0
 30 31  2  0
 11 32  1  0
  8  2  1  0
 31 14  1  0
 32  6  1  0
  1 33  1  0
  1 34  1  0
  8 35  1  0
  9 36  1  0
 10 37  1  0
 10 38  1  0
 11 39  1  6
 12 40  1  0
 12 41  1  0
 13 42  1  0
 15 43  1  0
 16 44  1  0
 20 45  1  0
 21 46  1  1
 22 47  1  0
 22 48  1  0
 23 49  1  0
 23 50  1  0
 26 51  1  0
 29 52  1  0
 30 53  1  0
 31 54  1  0
 32 55  1  0
M  END
$$$$

     RDKit          3D

 55 57  0  0  0  0  0  0  0  0999 V2000
   -9.6174    0.2598   -2.1805 N   0  0  0  0  0  0  0  0  0  0  0  0
   -8.3006   -0.0908   -1.7413 C   0  0  0  0  0  0  0  0  0  0  0  0
   -7.5314   -0.9586   -2.4225 N   0  0  0  0  0  0  0  0  0  0  0  0
   -6.2879   -1.2754   -1.9874 C   0  0  0  0  0  0  0  0  0  0  0  0
   -5.5494   -2.0881   -2.6126 O   0  0  0  0  0  0  0  0  0  0  0  0
   -5.7600   -0.7247   -0.8333 C   0  0  0  0  0  0  0  0  0  0  0  0
   -6.5633    0.1628   -0.1484 C   0  0  0  0  0  0  0  0  0  0  0  0
   -7.7952    0.4492   -0.6184 N   0  0  0  0  0  0  0  0  0  0  0  0
   -6.0471    0.7439    1.0404 N   0  0  0  0  0  0  0  0  0  0  0  0
   -4.6107    0.7343    1.2431 C   0  0  0  0  0  0  0  0  0  0  0  0
   -4.1292   -0.6708    1.0051 C   0  0  2  0  0  0  0  0  0  0  0  0
   -2.6649   -0.8421    1.3062 C   0  0  0  0  0  0  0  0  0  0  0  0
   -1.8221   -0.0059    0.5132 N   0  0  0  0  0  0  0  0  0  0  0  0
   -0.4213   -0.0559    0.6805 C   0  0  0  0  0  0  0  0  0  0  0  0
    0.1133   -0.9175    1.6138 C   0  0  0  0  0  0  0  0  0  0  0  0
    1.4670   -1.0208    1.8317 C   0  0  0  0  0  0  0  0  0  0  0  0
    2.3518   -0.2524    1.1114 C   0  0  0  0  0  0  0  0  0  0  0  0
    3.8041   -0.3692    1.3508 C   0  0  0  0  0  0  0  0  0  0  0  0
    4.2430   -1.1715    2.2211 O   0  0  0  0  0  0  0  0  0  0  0  0
    4.7708    0.3864    0.6431 N   0  0  0  0  0  0  0  0  0  0  0  0
    6.1929    0.2169    0.9347 C   0  0  1  0  0  0  0  0  0  0  0  0
    6.8674   -0.3287   -0.3040 C   0  0  0  0  0  0  0  0  0  0  0  0
    6.7129    0.6092   -1.4820 C   0  0  0  0  0  0  0  0  0  0  0  0
    7.3948    0.0150   -2.6559 C   0  0  0  0  0  0  0  0  0  0  0  0
    7.4128    0.6088   -3.7823 O   0  0  0  0  0  0  0  0  0  0  0  0
    8.0294   -1.1969   -2.5647 O   0  0  0  0  0  0  0  0  0  0  0  0
    6.8003    1.4831    1.4012 C   0  0  0  0  0  0  0  0  0  0  0  0
    6.0526    2.4965    1.4847 O   0  0  0  0  0  0  0  0  0  0  0  0
    8.1126    1.6303    1.7473 O   0  0  0  0  0  0  0  0  0  0  0  0
    1.8450    0.6221    0.1671 C   0  0  0  0  0  0  0  0  0  0  0  0
    0.4682    0.7120   -0.0389 C   0  0  0  0  0  0  0  0  0  0  0  0
   -4.4597   -1.0387   -0.3544 N   0  0  0  0  0  0  0  0  0  0  0  0
   -9.7947    1.0696   -2.8127 H   0  0  0  0  0  0  0  0  0  0  0  0
  -10.4497   -0.2900   -1.8784 H   0  0  0  0  0  0  0  0  0  0  0  0
   -8.3940    1.1345   -0.0742 H   0  0  0  0  0  0  0  0  0  0  0  0
   -6.7055    1.1605    1.7344 H   0  0  0  0  0  0  0  0  0  0  0  0
   -4.3320    1.1167    2.2408 H   0  0  0  0  0  0  0  0  0  0  0  0
   -4.1634    1.3921    0.4665 H   0  0  0  0  0  0  0  0  0  0  0  0
   -4.7020   -1.3476    1.6717 H   0  0  0  0  0  0  0  0  0  0  0  0
   -2.4116   -1.9035    1.0623 H   0  0  0  0  0  0  0  0  0  0  0  0
   -2.5045   -0.6494    2.3753 H   0  0  0  0  0  0  0  0  0  0  0  0
   -2.2517    0.6400   -0.1886 H   0  0  0  0  0  0  0  0  0  0  0  0
   -0.5475   -1.5442    2.2061 H   0  0  0  0  0  0  0  0  0  0  0  0
    1.8436   -1.7020    2.5656 H   0  0  0  0  0  0  0  0  0  0  0  0
    4.4739    1.0669   -0.0885 H   0  0  0  0  0  0  0  0  0  0  0  0
    6.3361   -0.5374    1.7344 H   0  0  0  0  0  0  0  0  0  0  0  0
    7.8995   -0.6335   -0.1432 H   0  0  0  0  0  0  0  0  0  0  0  0
    6.3000   -1.2615   -0.5708 H   0  0  0  0  0  0  0  0  0  0  0  0
    7.1261    1.6243   -1.2408 H   0  0  0  0  0  0  0  0  0  0  0  0
    5.6476    0.7704   -1.7288 H   0  0  0  0  0  0  0  0  0  0  0  0
    8.1297   -1.8352   -3.3495 H   0  0  0  0  0  0  0  0  0  0  0  0
    8.6185    2.4787    1.4596 H   0  0  0  0  0  0  0  0  0  0  0  0
    2.4915    1.2427   -0.4202 H   0  0  0  0  0  0  0  0  0  0  0  0
    0.0904    1.4099   -0.7903 H   0  0  0  0  0  0  0  0  0  0  0  0
   -3.7792   -1.5246   -0.9925 H   0  0  0  0  0  0  0  0  0  0  0  0
  1  2  1  0
  2  3  2  0
  3  4  1  0
  4  5  2  0
  4  6  1  0
  6  7  2  0
  7  8  1  0
  7  9  1  0
  9 10  1  0
 10 11  1  0
 11 12  1  0
 12 13  1  0
 13 14  1  0
 14 15  2  0
 15 16  1  0
 16 17  2  0
 17 18  1  0
 18 19  2  0
 18 20  1  0
 20 21  1  0
 21 22  1  0
 22 23  1  0
 23 24  1  0
 24 25  2  0
 24 26  1  0
 21 27  1  0
 27 28  2  0
 27 29  1  0
 17 30  1  0
 30 31  2  0
 11 32  1  0
  8  2  1  0
 31 14  1  0
 32  6  1  0
  1 33  1  0
  1 34  1  0
  8 35  1  0
  9 36  1  0
 10 37  1  0
 10 38  1  0
 11 39  1  1
 12 40  1  0
 12 41  1  0
 13 42  1  0
 15 43  1  0
 16 44  1  0
 20 45  1  0
 21 46  1  1
 22 47  1  0
 22 48  1  0
 23 49  1  0
 23 50  1  0
 26 51  1  0
 29 52  1  0
 30 53  1  0
 31 54  1  0
 32 55  1  0
M  END
$$$$

     RDKit          3D

 55 57  0  0  0  0  0  0  0  0999 V2000
    6.7653    2.6894    2.4121 N   0  0  0  0  0  0  0  0  0  0  0  0
    6.3727    1.3977    1.9229 C   0  0  0  0  0  0  0  0  0  0  0  0
    6.6279    0.2766    2.6223 N   0  0  0  0  0  0  0  0  0  0  0  0
    6.2571   -0.9364    2.1583 C   0  0  0  0  0  0  0  0  0  0  0  0
    6.4900   -1.9939    2.8034 O   0  0  0  0  0  0  0  0  0  0  0  0
    5.6025   -1.0904    0.9523 C   0  0  0  0  0  0  0  0  0  0  0  0
    5.3510    0.0708    0.2512 C   0  0  0  0  0  0  0  0  0  0  0  0
    5.7359    1.2599    0.7470 N   0  0  0  0  0  0  0  0  0  0  0  0
    4.6767   -0.0808   -1.0003 N   0  0  0  0  0  0  0  0  0  0  0  0
    4.6583   -1.3936   -1.6665 C   0  0  0  0  0  0  0  0  0  0  0  0
    4.1672   -2.3821   -0.6035 C   0  0  2  0  0  0  0  0  0  0  0  0
    2.8716   -1.7734   -0.0515 C   0  0  0  0  0  0  0  0  0  0  0  0
    1.8924   -1.6055   -1.0761 N   0  0  0  0  0  0  0  0  0  0  0  0
    0.6081   -1.0774   -0.7890 C   0  0  0  0  0  0  0  0  0  0  0  0
    0.2865   -0.7753    0.5173 C   0  0  0  0  0  0  0  0  0  0  0  0
   -0.9458   -0.2609    0.8295 C   0  0  0  0  0  0  0  0  0  0  0  0
   -1.9147   -0.0246   -0.1523 C   0  0  0  0  0  0  0  0  0  0  0  0
   -3.2238    0.5240    0.2528 C   0  0  0  0  0  0  0  0  0  0  0  0
   -3.5109    0.5192    1.4775 O   0  0  0  0  0  0  0  0  0  0  0  0
   -4.1454    1.0431   -0.6684 N   0  0  0  0  0  0  0  0  0  0  0  0
   -5.4510    1.5785   -0.3806 C   0  0  1  0  0  0  0  0  0  0  0  0
   -6.0720    1.0552    0.9034 C   0  0  0  0  0  0  0  0  0  0  0  0
   -6.2978   -0.4328    0.8319 C   0  0  0  0  0  0  0  0  0  0  0  0
   -7.2535   -0.7260   -0.3050 C   0  0  0  0  0  0  0  0  0  0  0  0
   -8.4753   -0.5621   -0.1473 O   0  0  0  0  0  0  0  0  0  0  0  0
   -6.7650   -1.1700   -1.5007 O   0  0  0  0  0  0  0  0  0  0  0  0
   -5.6027    3.0149   -0.5801 C   0  0  0  0  0  0  0  0  0  0  0  0
   -4.5818    3.6603   -0.9869 O   0  0  0  0  0  0  0  0  0  0  0  0
   -6.7562    3.7256   -0.3644 O   0  0  0  0  0  0  0  0  0  0  0  0
   -1.5682   -0.3333   -1.4370 C   0  0  0  0  0  0  0  0  0  0  0  0
   -0.3354   -0.8529   -1.7856 C   0  0  0  0  0  0  0  0  0  0  0  0
    5.1982   -2.3522    0.4366 N   0  0  0  0  0  0  0  0  0  0  0  0
    7.1630    2.7633    3.3549 H   0  0  0  0  0  0  0  0  0  0  0  0
    6.6581    3.5497    1.8389 H   0  0  0  0  0  0  0  0  0  0  0  0
    5.5292    2.1347    0.1860 H   0  0  0  0  0  0  0  0  0  0  0  0
    4.2138    0.7490   -1.4084 H   0  0  0  0  0  0  0  0  0  0  0  0
    5.6991   -1.7081   -1.9128 H   0  0  0  0  0  0  0  0  0  0  0  0
    4.0172   -1.3628   -2.5431 H   0  0  0  0  0  0  0  0  0  0  0  0
    3.9929   -3.3804   -0.9962 H   0  0  0  0  0  0  0  0  0  0  0  0
    2.4845   -2.5179    0.7019 H   0  0  0  0  0  0  0  0  0  0  0  0
    3.0830   -0.8481    0.5065 H   0  0  0  0  0  0  0  0  0  0  0  0
    2.1045   -1.8696   -2.0589 H   0  0  0  0  0  0  0  0  0  0  0  0
    1.0275   -0.9543    1.2834 H   0  0  0  0  0  0  0  0  0  0  0  0
   -1.1743   -0.0320    1.8668 H   0  0  0  0  0  0  0  0  0  0  0  0
   -3.8001    1.0205   -1.6863 H   0  0  0  0  0  0  0  0  0  0  0  0
   -6.1362    1.0598   -1.1629 H   0  0  0  0  0  0  0  0  0  0  0  0
   -7.1112    1.5110    0.9076 H   0  0  0  0  0  0  0  0  0  0  0  0
   -5.6003    1.3961    1.8162 H   0  0  0  0  0  0  0  0  0  0  0  0
   -6.8225   -0.7959    1.7442 H   0  0  0  0  0  0  0  0  0  0  0  0
   -5.3970   -1.0161    0.6213 H   0  0  0  0  0  0  0  0  0  0  0  0
   -7.2129   -0.9376   -2.3877 H   0  0  0  0  0  0  0  0  0  0  0  0
   -6.6698    4.7218   -0.1532 H   0  0  0  0  0  0  0  0  0  0  0  0
   -2.2815   -0.1699   -2.2265 H   0  0  0  0  0  0  0  0  0  0  0  0
   -0.0776   -1.0923   -2.8082 H   0  0  0  0  0  0  0  0  0  0  0  0
    5.6488   -3.2128    0.8159 H   0  0  0  0  0  0  0  0  0  0  0  0
  1  2  1  0
  2  3  2  0
  3  4  1  0
  4  5  2  0
  4  6  1  0
  6  7  2  0
  7  8  1  0
  7  9  1  0
  9 10  1  0
 10 11  1  0
 11 12  1  0
 12 13  1  0
 13 14  1  0
 14 15  2  0
 15 16  1  0
 16 17  2  0
 17 18  1  0
 18 19  2  0
 18 20  1  0
 20 21  1  0
 21 22  1  0
 22 23  1  0
 23 24  1  0
 24 25  2  0
 24 26  1  0
 21 27  1  0
 27 28  2  0
 27 29  1  0
 17 30  1  0
 30 31  2  0
 11 32  1  0
  8  2  1  0
 31 14  1  0
 32  6  1  0
  1 33  1  0
  1 34  1  0
  8 35  1  0
  9 36  1  0
 10 37  1  0
 10 38  1  0
 11 39  1  6
 12 40  1  0
 12 41  1  0
 13 42  1  0
 15 43  1  0
 16 44  1  0
 20 45  1  0
 21 46  1  6
 22 47  1  0
 22 48  1  0
 23 49  1  0
 23 50  1  0
 26 51  1  0
 29 52  1  0
 30 53  1  0
 31 54  1  0
 32 55  1  0
M  END
$$$$

     RDKit          3D

 55 57  0  0  0  0  0  0  0  0999 V2000
    9.4801   -0.5861   -0.5824 N   0  0  0  0  0  0  0  0  0  0  0  0
    8.1621   -0.7807   -0.1275 C   0  0  0  0  0  0  0  0  0  0  0  0
    7.9769   -1.3018    1.1143 N   0  0  0  0  0  0  0  0  0  0  0  0
    6.7146   -1.4878    1.5463 C   0  0  0  0  0  0  0  0  0  0  0  0
    6.4960   -1.9729    2.7012 O   0  0  0  0  0  0  0  0  0  0  0  0
    5.6383   -1.1541    0.7406 C   0  0  0  0  0  0  0  0  0  0  0  0
    5.8843   -0.6292   -0.5095 C   0  0  0  0  0  0  0  0  0  0  0  0
    7.1439   -0.4456   -0.9363 N   0  0  0  0  0  0  0  0  0  0  0  0
    4.8052   -0.2846   -1.3414 N   0  0  0  0  0  0  0  0  0  0  0  0
    3.4780   -0.7037   -0.9969 C   0  0  0  0  0  0  0  0  0  0  0  0
    3.2255   -0.6275    0.4925 C   0  0  2  0  0  0  0  0  0  0  0  0
    3.2335    0.8015    0.9789 C   0  0  0  0  0  0  0  0  0  0  0  0
    2.2493    1.6394    0.3769 N   0  0  0  0  0  0  0  0  0  0  0  0
    0.8408    1.4869    0.5414 C   0  0  0  0  0  0  0  0  0  0  0  0
   -0.0321    2.2047   -0.2855 C   0  0  0  0  0  0  0  0  0  0  0  0
   -1.4020    2.0715   -0.1287 C   0  0  0  0  0  0  0  0  0  0  0  0
   -1.9442    1.2418    0.8307 C   0  0  0  0  0  0  0  0  0  0  0  0
   -3.4106    1.1216    0.9543 C   0  0  0  0  0  0  0  0  0  0  0  0
   -4.0640    1.7069    1.8394 O   0  0  0  0  0  0  0  0  0  0  0  0
   -4.1133    0.3070    0.0325 N   0  0  0  0  0  0  0  0  0  0  0  0
   -5.5696    0.1194    0.0683 C   0  0  1  0  0  0  0  0  0  0  0  0
   -6.1848    0.7635   -1.1294 C   0  0  0  0  0  0  0  0  0  0  0  0
   -7.6554    0.5670   -1.2251 C   0  0  0  0  0  0  0  0  0  0  0  0
   -7.9822   -0.8301   -1.5392 C   0  0  0  0  0  0  0  0  0  0  0  0
   -7.0518   -1.5881   -1.9647 O   0  0  0  0  0  0  0  0  0  0  0  0
   -9.2426   -1.3994   -1.4081 O   0  0  0  0  0  0  0  0  0  0  0  0
   -5.9664   -1.1949    0.4925 C   0  0  0  0  0  0  0  0  0  0  0  0
   -5.1902   -2.2171    0.5012 O   0  0  0  0  0  0  0  0  0  0  0  0
   -7.2486   -1.4820    0.9506 O   0  0  0  0  0  0  0  0  0  0  0  0
   -1.0685    0.5449    1.6337 C   0  0  0  0  0  0  0  0  0  0  0  0
    0.3084    0.6554    1.5035 C   0  0  0  0  0  0  0  0  0  0  0  0
    4.2951   -1.3378    1.1615 N   0  0  0  0  0  0  0  0  0  0  0  0
    9.7680   -0.8626   -1.5380 H   0  0  0  0  0  0  0  0  0  0  0  0
   10.1804   -0.1591    0.0449 H   0  0  0  0  0  0  0  0  0  0  0  0
    7.3524   -0.0439   -1.8916 H   0  0  0  0  0  0  0  0  0  0  0  0
    4.9394    0.2772   -2.2202 H   0  0  0  0  0  0  0  0  0  0  0  0
    3.3310   -1.7628   -1.2925 H   0  0  0  0  0  0  0  0  0  0  0  0
    2.7155   -0.1201   -1.5704 H   0  0  0  0  0  0  0  0  0  0  0  0
    2.3132   -1.1868    0.6864 H   0  0  0  0  0  0  0  0  0  0  0  0
    4.2400    1.2107    0.7703 H   0  0  0  0  0  0  0  0  0  0  0  0
    3.1387    0.7731    2.0863 H   0  0  0  0  0  0  0  0  0  0  0  0
    2.5815    2.4365   -0.2392 H   0  0  0  0  0  0  0  0  0  0  0  0
    0.4059    2.8571   -1.0399 H   0  0  0  0  0  0  0  0  0  0  0  0
   -2.0788    2.6335   -0.7765 H   0  0  0  0  0  0  0  0  0  0  0  0
   -3.5609   -0.1815   -0.7067 H   0  0  0  0  0  0  0  0  0  0  0  0
   -5.8742    0.8137    0.9418 H   0  0  0  0  0  0  0  0  0  0  0  0
   -5.6600    0.4565   -2.0786 H   0  0  0  0  0  0  0  0  0  0  0  0
   -6.0303    1.8840   -0.9960 H   0  0  0  0  0  0  0  0  0  0  0  0
   -8.1387    0.8982   -0.2558 H   0  0  0  0  0  0  0  0  0  0  0  0
   -8.1142    1.2631   -1.9862 H   0  0  0  0  0  0  0  0  0  0  0  0
   -9.5089   -2.0859   -2.1131 H   0  0  0  0  0  0  0  0  0  0  0  0
   -7.4588   -2.3201    1.4747 H   0  0  0  0  0  0  0  0  0  0  0  0
   -1.4451   -0.1069    2.3872 H   0  0  0  0  0  0  0  0  0  0  0  0
    0.9950    0.1163    2.1365 H   0  0  0  0  0  0  0  0  0  0  0  0
    4.1031   -1.9981    1.9653 H   0  0  0  0  0  0  0  0  0  0  0  0
  1  2  1  0
  2  3  2  0
  3  4  1  0
  4  5  2  0
  4  6  1  0
  6  7  2  0
  7  8  1  0
  7  9  1  0
  9 10  1  0
 10 11  1  0
 11 12  1  0
 12 13  1  0
 13 14  1  0
 14 15  2  0
 15 16  1  0
 16 17  2  0
 17 18  1  0
 18 19  2  0
 18 20  1  0
 20 21  1  0
 21 22  1  0
 22 23  1  0
 23 24  1  0
 24 25  2  0
 24 26  1  0
 21 27  1  0
 27 28  2  0
 27 29  1  0
 17 30  1  0
 30 31  2  0
 11 32  1  0
  8  2  1  0
 31 14  1  0
 32  6  1  0
  1 33  1  0
  1 34  1  0
  8 35  1  0
  9 36  1  0
 10 37  1  0
 10 38  1  0
 11 39  1  6
 12 40  1  0
 12 41  1  0
 13 42  1  0
 15 43  1  0
 16 44  1  0
 20 45  1  0
 21 46  1  1
 22 47  1  0
 22 48  1  0
 23 49  1  0
 23 50  1  0
 26 51  1  0
 29 52  1  0
 30 53  1  0
 31 54  1  0
 32 55  1  0
M  END
$$$$

     RDKit          3D

 55 57  0  0  0  0  0  0  0  0999 V2000
   -9.3926   -0.4346    0.3676 N   0  0  0  0  0  0  0  0  0  0  0  0
   -8.0330   -0.4306   -0.0159 C   0  0  0  0  0  0  0  0  0  0  0  0
   -7.6850   -0.2730   -1.2957 N   0  0  0  0  0  0  0  0  0  0  0  0
   -6.3909   -0.2602   -1.6825 C   0  0  0  0  0  0  0  0  0  0  0  0
   -6.0358   -0.1152   -2.8765 O   0  0  0  0  0  0  0  0  0  0  0  0
   -5.4048   -0.4141   -0.7230 C   0  0  0  0  0  0  0  0  0  0  0  0
   -5.7727   -0.5750    0.5860 C   0  0  0  0  0  0  0  0  0  0  0  0
   -7.1006   -0.5815    0.9312 N   0  0  0  0  0  0  0  0  0  0  0  0
   -4.7843   -0.7333    1.5812 N   0  0  0  0  0  0  0  0  0  0  0  0
   -3.4050   -0.9083    1.2257 C   0  0  0  0  0  0  0  0  0  0  0  0
   -3.0434   -0.1470   -0.0578 C   0  0  2  0  0  0  0  0  0  0  0  0
   -3.1005    1.3128    0.3299 C   0  0  0  0  0  0  0  0  0  0  0  0
   -2.1391    1.5265    1.3851 N   0  0  0  0  0  0  0  0  0  0  0  0
   -0.7595    1.4324    1.0981 C   0  0  0  0  0  0  0  0  0  0  0  0
    0.2080    1.3303    2.0658 C   0  0  0  0  0  0  0  0  0  0  0  0
    1.5524    1.2548    1.7896 C   0  0  0  0  0  0  0  0  0  0  0  0
    1.9792    1.2811    0.4772 C   0  0  0  0  0  0  0  0  0  0  0  0
    3.3993    1.2095    0.1383 C   0  0  0  0  0  0  0  0  0  0  0  0
    4.2029    2.0630    0.5137 O   0  0  0  0  0  0  0  0  0  0  0  0
    3.8873    0.1057   -0.6610 N   0  0  0  0  0  0  0  0  0  0  0  0
    5.3144    0.0174   -1.0159 C   0  0  1  0  0  0  0  0  0  0  0  0
    5.9540   -1.1215   -0.2480 C   0  0  0  0  0  0  0  0  0  0  0  0
    7.4031   -1.3186   -0.5143 C   0  0  0  0  0  0  0  0  0  0  0  0
    7.9664   -2.4452    0.3120 C   0  0  0  0  0  0  0  0  0  0  0  0
    7.2004   -3.0627    1.0767 O   0  0  0  0  0  0  0  0  0  0  0  0
    9.3002   -2.7749    0.2151 O   0  0  0  0  0  0  0  0  0  0  0  0
    5.4845   -0.0600   -2.4691 C   0  0  0  0  0  0  0  0  0  0  0  0
    4.4723   -0.0901   -3.2582 O   0  0  0  0  0  0  0  0  0  0  0  0
    6.7057   -0.1041   -3.1064 O   0  0  0  0  0  0  0  0  0  0  0  0
    1.0372    1.3829   -0.5103 C   0  0  0  0  0  0  0  0  0  0  0  0
   -0.3304    1.4593   -0.2113 C   0  0  0  0  0  0  0  0  0  0  0  0
   -4.0412   -0.4065   -1.0772 N   0  0  0  0  0  0  0  0  0  0  0  0
  -10.0561   -1.0504   -0.1112 H   0  0  0  0  0  0  0  0  0  0  0  0
   -9.7086    0.1826    1.1333 H   0  0  0  0  0  0  0  0  0  0  0  0
   -7.3477   -0.7060    1.9285 H   0  0  0  0  0  0  0  0  0  0  0  0
   -5.1033   -0.7178    2.5801 H   0  0  0  0  0  0  0  0  0  0  0  0
   -2.7918   -0.4824    2.0679 H   0  0  0  0  0  0  0  0  0  0  0  0
   -3.1058   -1.9722    1.1667 H   0  0  0  0  0  0  0  0  0  0  0  0
   -2.0457   -0.4298   -0.3879 H   0  0  0  0  0  0  0  0  0  0  0  0
   -2.9408    1.9935   -0.5403 H   0  0  0  0  0  0  0  0  0  0  0  0
   -4.1235    1.5306    0.7235 H   0  0  0  0  0  0  0  0  0  0  0  0
   -2.4705    1.7514    2.3620 H   0  0  0  0  0  0  0  0  0  0  0  0
   -0.1549    1.3100    3.0892 H   0  0  0  0  0  0  0  0  0  0  0  0
    2.2922    1.1738    2.5538 H   0  0  0  0  0  0  0  0  0  0  0  0
    3.1776   -0.5916   -0.9493 H   0  0  0  0  0  0  0  0  0  0  0  0
    5.7889    0.9562   -0.6487 H   0  0  0  0  0  0  0  0  0  0  0  0
    5.7687   -1.0191    0.8345 H   0  0  0  0  0  0  0  0  0  0  0  0
    5.4102   -2.0671   -0.5470 H   0  0  0  0  0  0  0  0  0  0  0  0
    7.9991   -0.4229   -0.2630 H   0  0  0  0  0  0  0  0  0  0  0  0
    7.6123   -1.5367   -1.6030 H   0  0  0  0  0  0  0  0  0  0  0  0
    9.7615   -3.2875    0.9512 H   0  0  0  0  0  0  0  0  0  0  0  0
    6.8191   -0.2586   -4.0925 H   0  0  0  0  0  0  0  0  0  0  0  0
    1.3114    1.4067   -1.5623 H   0  0  0  0  0  0  0  0  0  0  0  0
   -1.0154    1.5502   -1.0203 H   0  0  0  0  0  0  0  0  0  0  0  0
   -3.7256   -0.5760   -2.0352 H   0  0  0  0  0  0  0  0  0  0  0  0
  1  2  1  0
  2  3  2  0
  3  4  1  0
  4  5  2  0
  4  6  1  0
  6  7  2  0
  7  8  1  0
  7  9  1  0
  9 10  1  0
 10 11  1  0
 11 12  1  0
 12 13  1  0
 13 14  1  0
 14 15  2  0
 15 16  1  0
 16 17  2  0
 17 18  1  0
 18 19  2  0
 18 20  1  0
 20 21  1  0
 21 22  1  0
 22 23  1  0
 23 24  1  0
 24 25  2  0
 24 26  1  0
 21 27  1  0
 27 28  2  0
 27 29  1  0
 17 30  1  0
 30 31  2  0
 11 32  1  0
  8  2  1  0
 31 14  1  0
 32  6  1  0
  1 33  1  0
  1 34  1  0
  8 35  1  0
  9 36  1  0
 10 37  1  0
 10 38  1  0
 11 39  1  6
 12 40  1  0
 12 41  1  0
 13 42  1  0
 15 43  1  0
 16 44  1  0
 20 45  1  0
 21 46  1  1
 22 47  1  0
 22 48  1  0
 23 49  1  0
 23 50  1  0
 26 51  1  0
 29 52  1  0
 30 53  1  0
 31 54  1  0
 32 55  1  0
M  END
$$$$

     RDKit          3D

 55 57  0  0  0  0  0  0  0  0999 V2000
   -9.6057   -1.2912    1.3748 N   0  0  0  0  0  0  0  0  0  0  0  0
   -8.3388   -0.8167    0.9597 C   0  0  0  0  0  0  0  0  0  0  0  0
   -7.8787    0.3786    1.3976 N   0  0  0  0  0  0  0  0  0  0  0  0
   -6.6822    0.8710    1.0327 C   0  0  0  0  0  0  0  0  0  0  0  0
   -6.2786    2.0015    1.4640 O   0  0  0  0  0  0  0  0  0  0  0  0
   -5.8662    0.1562    0.1802 C   0  0  0  0  0  0  0  0  0  0  0  0
   -6.3351   -1.0731   -0.2726 C   0  0  0  0  0  0  0  0  0  0  0  0
   -7.5364   -1.5053    0.1294 N   0  0  0  0  0  0  0  0  0  0  0  0
   -5.5089   -1.8290   -1.1558 N   0  0  0  0  0  0  0  0  0  0  0  0
   -4.0780   -1.5061   -1.1642 C   0  0  0  0  0  0  0  0  0  0  0  0
   -3.9920   -0.0125   -1.3850 C   0  0  2  0  0  0  0  0  0  0  0  0
   -2.5385    0.3525   -1.5565 C   0  0  0  0  0  0  0  0  0  0  0  0
   -1.7871   -0.0048   -0.3814 N   0  0  0  0  0  0  0  0  0  0  0  0
   -0.3871    0.2736   -0.3701 C   0  0  0  0  0  0  0  0  0  0  0  0
    0.3859   -0.0686    0.7181 C   0  0  0  0  0  0  0  0  0  0  0  0
    1.7549    0.2005    0.7432 C   0  0  0  0  0  0  0  0  0  0  0  0
    2.3980    0.8146   -0.3052 C   0  0  0  0  0  0  0  0  0  0  0  0
    3.8213    1.1214   -0.3426 C   0  0  0  0  0  0  0  0  0  0  0  0
    4.2541    1.8504   -1.3014 O   0  0  0  0  0  0  0  0  0  0  0  0
    4.7129    0.6386    0.6389 N   0  0  0  0  0  0  0  0  0  0  0  0
    6.1484    0.9391    0.6271 C   0  0  1  0  0  0  0  0  0  0  0  0
    6.7697    0.2911   -0.5556 C   0  0  0  0  0  0  0  0  0  0  0  0
    6.5768   -1.1946   -0.5028 C   0  0  0  0  0  0  0  0  0  0  0  0
    7.2082   -1.8076    0.6690 C   0  0  0  0  0  0  0  0  0  0  0  0
    6.9990   -3.0362    0.9440 O   0  0  0  0  0  0  0  0  0  0  0  0
    8.0356   -1.1096    1.5056 O   0  0  0  0  0  0  0  0  0  0  0  0
    6.3401    2.4204    0.6230 C   0  0  0  0  0  0  0  0  0  0  0  0
    5.3335    3.1492    0.6592 O   0  0  0  0  0  0  0  0  0  0  0  0
    7.5808    3.0110    0.5808 O   0  0  0  0  0  0  0  0  0  0  0  0
    1.5889    1.1515   -1.3981 C   0  0  0  0  0  0  0  0  0  0  0  0
    0.2397    0.8898   -1.4306 C   0  0  0  0  0  0  0  0  0  0  0  0
   -4.5822    0.6355   -0.2365 N   0  0  0  0  0  0  0  0  0  0  0  0
  -10.2361   -0.7198    1.9679 H   0  0  0  0  0  0  0  0  0  0  0  0
   -9.9236   -2.2384    1.0827 H   0  0  0  0  0  0  0  0  0  0  0  0
   -7.8668   -2.4462   -0.2324 H   0  0  0  0  0  0  0  0  0  0  0  0
   -5.9453   -2.5543   -1.7373 H   0  0  0  0  0  0  0  0  0  0  0  0
   -3.6844   -1.7205   -0.1408 H   0  0  0  0  0  0  0  0  0  0  0  0
   -3.5476   -2.0443   -1.9581 H   0  0  0  0  0  0  0  0  0  0  0  0
   -4.5714    0.2990   -2.2905 H   0  0  0  0  0  0  0  0  0  0  0  0
   -2.0745   -0.2045   -2.4032 H   0  0  0  0  0  0  0  0  0  0  0  0
   -2.4488    1.4272   -1.8170 H   0  0  0  0  0  0  0  0  0  0  0  0
   -2.2259   -0.4464    0.4369 H   0  0  0  0  0  0  0  0  0  0  0  0
   -0.0612   -0.5608    1.5890 H   0  0  0  0  0  0  0  0  0  0  0  0
    2.3503   -0.0781    1.6177 H   0  0  0  0  0  0  0  0  0  0  0  0
    4.3304    0.0419    1.4021 H   0  0  0  0  0  0  0  0  0  0  0  0
    6.5517    0.6084    1.6081 H   0  0  0  0  0  0  0  0  0  0  0  0
    7.8660    0.4769   -0.5492 H   0  0  0  0  0  0  0  0  0  0  0  0
    6.3015    0.6691   -1.4879 H   0  0  0  0  0  0  0  0  0  0  0  0
    5.4706   -1.4369   -0.4812 H   0  0  0  0  0  0  0  0  0  0  0  0
    6.9532   -1.6566   -1.4429 H   0  0  0  0  0  0  0  0  0  0  0  0
    8.7625   -1.5316    2.0877 H   0  0  0  0  0  0  0  0  0  0  0  0
    7.6529    4.0003    0.8636 H   0  0  0  0  0  0  0  0  0  0  0  0
    2.0754    1.6400   -2.2448 H   0  0  0  0  0  0  0  0  0  0  0  0
   -0.3431    1.1696   -2.2989 H   0  0  0  0  0  0  0  0  0  0  0  0
   -4.1380    1.4147    0.2954 H   0  0  0  0  0  0  0  0  0  0  0  0
  1  2  1  0
  2  3  2  0
  3  4  1  0
  4  5  2  0
  4  6  1  0
  6  7  2  0
  7  8  1  0
  7  9  1  0
  9 10  1  0
 10 11  1  0
 11 12  1  0
 12 13  1  0
 13 14  1  0
 14 15  2  0
 15 16  1  0
 16 17  2  0
 17 18  1  0
 18 19  2  0
 18 20  1  0
 20 21  1  0
 21 22  1  0
 22 23  1  0
 23 24  1  0
 24 25  2  0
 24 26  1  0
 21 27  1  0
 27 28  2  0
 27 29  1  0
 17 30  1  0
 30 31  2  0
 11 32  1  0
  8  2  1  0
 31 14  1  0
 32  6  1  0
  1 33  1  0
  1 34  1  0
  8 35  1  0
  9 36  1  0
 10 37  1  0
 10 38  1  0
 11 39  1  6
 12 40  1  0
 12 41  1  0
 13 42  1  0
 15 43  1  0
 16 44  1  0
 20 45  1  0
 21 46  1  1
 22 47  1  0
 22 48  1  0
 23 49  1  0
 23 50  1  0
 26 51  1  0
 29 52  1  0
 30 53  1  0
 31 54  1  0
 32 55  1  0
M  END
$$$$

     RDKit          3D

 55 57  0  0  0  0  0  0  0  0999 V2000
   -7.5314   -2.4072    3.1285 N   0  0  0  0  0  0  0  0  0  0  0  0
   -6.7196   -1.4038    2.5341 C   0  0  0  0  0  0  0  0  0  0  0  0
   -6.7249   -0.1361    3.0266 N   0  0  0  0  0  0  0  0  0  0  0  0
   -5.9806    0.8372    2.5014 C   0  0  0  0  0  0  0  0  0  0  0  0
   -5.9684    2.0117    2.9372 O   0  0  0  0  0  0  0  0  0  0  0  0
   -5.1782    0.5589    1.4259 C   0  0  0  0  0  0  0  0  0  0  0  0
   -5.1566   -0.7254    0.9072 C   0  0  0  0  0  0  0  0  0  0  0  0
   -5.9286   -1.6729    1.4761 N   0  0  0  0  0  0  0  0  0  0  0  0
   -4.3432   -1.0611   -0.2045 N   0  0  0  0  0  0  0  0  0  0  0  0
   -3.3555   -0.0789   -0.6841 C   0  0  0  0  0  0  0  0  0  0  0  0
   -3.9650    1.2683   -0.5897 C   0  0  2  0  0  0  0  0  0  0  0  0
   -3.1824    2.4093   -1.1499 C   0  0  0  0  0  0  0  0  0  0  0  0
   -1.9069    2.6511   -0.5791 N   0  0  0  0  0  0  0  0  0  0  0  0
   -0.7712    1.8437   -0.8346 C   0  0  0  0  0  0  0  0  0  0  0  0
    0.3263    1.8791    0.0338 C   0  0  0  0  0  0  0  0  0  0  0  0
    1.4712    1.1446   -0.1688 C   0  0  0  0  0  0  0  0  0  0  0  0
    1.5699    0.3252   -1.2725 C   0  0  0  0  0  0  0  0  0  0  0  0
    2.7159   -0.4901   -1.5938 C   0  0  0  0  0  0  0  0  0  0  0  0
    2.6895   -1.2312   -2.5990 O   0  0  0  0  0  0  0  0  0  0  0  0
    3.8708   -0.4640   -0.7883 N   0  0  0  0  0  0  0  0  0  0  0  0
    5.0393   -1.2716   -1.0845 C   0  0  1  0  0  0  0  0  0  0  0  0
    6.2018   -0.4208   -1.4375 C   0  0  0  0  0  0  0  0  0  0  0  0
    6.6657    0.5547   -0.4201 C   0  0  0  0  0  0  0  0  0  0  0  0
    7.1040   -0.0453    0.8578 C   0  0  0  0  0  0  0  0  0  0  0  0
    6.2895   -0.1654    1.7927 O   0  0  0  0  0  0  0  0  0  0  0  0
    8.4259   -0.4694    0.9995 O   0  0  0  0  0  0  0  0  0  0  0  0
    5.2917   -2.3216   -0.0785 C   0  0  0  0  0  0  0  0  0  0  0  0
    4.4919   -2.4476    0.8773 O   0  0  0  0  0  0  0  0  0  0  0  0
    6.3747   -3.1757   -0.1426 O   0  0  0  0  0  0  0  0  0  0  0  0
    0.4725    0.2888   -2.1427 C   0  0  0  0  0  0  0  0  0  0  0  0
   -0.6720    1.0265   -1.9358 C   0  0  0  0  0  0  0  0  0  0  0  0
   -4.3501    1.5170    0.7958 N   0  0  0  0  0  0  0  0  0  0  0  0
   -7.6179   -3.3458    2.6904 H   0  0  0  0  0  0  0  0  0  0  0  0
   -8.0505   -2.2207    4.0072 H   0  0  0  0  0  0  0  0  0  0  0  0
   -5.9313   -2.6544    1.1034 H   0  0  0  0  0  0  0  0  0  0  0  0
   -4.4771   -1.9939   -0.6402 H   0  0  0  0  0  0  0  0  0  0  0  0
   -3.1641   -0.3998   -1.7379 H   0  0  0  0  0  0  0  0  0  0  0  0
   -2.4794   -0.1604   -0.0235 H   0  0  0  0  0  0  0  0  0  0  0  0
   -4.9284    1.2378   -1.1560 H   0  0  0  0  0  0  0  0  0  0  0  0
   -3.8292    3.3199   -1.0218 H   0  0  0  0  0  0  0  0  0  0  0  0
   -3.1196    2.2317   -2.2568 H   0  0  0  0  0  0  0  0  0  0  0  0
   -1.7955    3.4746    0.0708 H   0  0  0  0  0  0  0  0  0  0  0  0
    0.2711    2.5222    0.9168 H   0  0  0  0  0  0  0  0  0  0  0  0
    2.3106    1.2003    0.5369 H   0  0  0  0  0  0  0  0  0  0  0  0
    3.9381    0.1456    0.0679 H   0  0  0  0  0  0  0  0  0  0  0  0
    4.7836   -1.8480   -2.0301 H   0  0  0  0  0  0  0  0  0  0  0  0
    7.1002   -1.0462   -1.7317 H   0  0  0  0  0  0  0  0  0  0  0  0
    5.9823    0.1403   -2.3952 H   0  0  0  0  0  0  0  0  0  0  0  0
    5.8884    1.3180   -0.1737 H   0  0  0  0  0  0  0  0  0  0  0  0
    7.5603    1.1283   -0.8042 H   0  0  0  0  0  0  0  0  0  0  0  0
    8.7358   -0.6328    1.9592 H   0  0  0  0  0  0  0  0  0  0  0  0
    6.6186   -3.7527    0.6750 H   0  0  0  0  0  0  0  0  0  0  0  0
    0.5007   -0.3455   -3.0332 H   0  0  0  0  0  0  0  0  0  0  0  0
   -1.5130    0.9970   -2.6309 H   0  0  0  0  0  0  0  0  0  0  0  0
   -4.0497    2.3568    1.3407 H   0  0  0  0  0  0  0  0  0  0  0  0
  1  2  1  0
  2  3  2  0
  3  4  1  0
  4  5  2  0
  4  6  1  0
  6  7  2  0
  7  8  1  0
  7  9  1  0
  9 10  1  0
 10 11  1  0
 11 12  1  0
 12 13  1  0
 13 14  1  0
 14 15  2  0
 15 16  1  0
 16 17  2  0
 17 18  1  0
 18 19  2  0
 18 20  1  0
 20 21  1  0
 21 22  1  0
 22 23  1  0
 23 24  1  0
 24 25  2  0
 24 26  1  0
 21 27  1  0
 27 28  2  0
 27 29  1  0
 17 30  1  0
 30 31  2  0
 11 32  1  0
  8  2  1  0
 31 14  1  0
 32  6  1  0
  1 33  1  0
  1 34  1  0
  8 35  1  0
  9 36  1  0
 10 37  1  0
 10 38  1  0
 11 39  1  6
 12 40  1  0
 12 41  1  0
 13 42  1  0
 15 43  1  0
 16 44  1  0
 20 45  1  0
 21 46  1  6
 22 47  1  0
 22 48  1  0
 23 49  1  0
 23 50  1  0
 26 51  1  0
 29 52  1  0
 30 53  1  0
 31 54  1  0
 32 55  1  0
M  END
$$$$

     RDKit          3D

 55 57  0  0  0  0  0  0  0  0999 V2000
  -10.0280    1.3634   -0.5664 N   0  0  0  0  0  0  0  0  0  0  0  0
   -8.7602    0.7650   -0.3329 C   0  0  0  0  0  0  0  0  0  0  0  0
   -8.6724   -0.5771   -0.3831 N   0  0  0  0  0  0  0  0  0  0  0  0
   -7.5142   -1.2193   -0.1745 C   0  0  0  0  0  0  0  0  0  0  0  0
   -7.4004   -2.4758   -0.2151 O   0  0  0  0  0  0  0  0  0  0  0  0
   -6.3995   -0.4580    0.0966 C   0  0  0  0  0  0  0  0  0  0  0  0
   -6.5269    0.9220    0.1405 C   0  0  0  0  0  0  0  0  0  0  0  0
   -7.7085    1.5456   -0.0740 N   0  0  0  0  0  0  0  0  0  0  0  0
   -5.3758    1.6716    0.4186 N   0  0  0  0  0  0  0  0  0  0  0  0
   -4.1577    1.1671    0.9989 C   0  0  0  0  0  0  0  0  0  0  0  0
   -4.0485   -0.3229    0.9994 C   0  0  2  0  0  0  0  0  0  0  0  0
   -2.7615   -0.7244    0.2897 C   0  0  0  0  0  0  0  0  0  0  0  0
   -1.6598   -0.1439    0.9951 N   0  0  0  0  0  0  0  0  0  0  0  0
   -0.3253   -0.3651    0.5138 C   0  0  0  0  0  0  0  0  0  0  0  0
   -0.1055   -1.1260   -0.6115 C   0  0  0  0  0  0  0  0  0  0  0  0
    1.1884   -1.3313   -1.0715 C   0  0  0  0  0  0  0  0  0  0  0  0
    2.2986   -0.8006   -0.4463 C   0  0  0  0  0  0  0  0  0  0  0  0
    3.6382   -1.0425   -0.9711 C   0  0  0  0  0  0  0  0  0  0  0  0
    3.7468   -1.7017   -2.0335 O   0  0  0  0  0  0  0  0  0  0  0  0
    4.8256   -0.5910   -0.3746 N   0  0  0  0  0  0  0  0  0  0  0  0
    6.1613   -0.8252   -0.8901 C   0  0  1  0  0  0  0  0  0  0  0  0
    6.8490    0.3903   -1.3452 C   0  0  0  0  0  0  0  0  0  0  0  0
    7.0245    1.5340   -0.4251 C   0  0  0  0  0  0  0  0  0  0  0  0
    7.8275    1.2949    0.7535 C   0  0  0  0  0  0  0  0  0  0  0  0
    8.4585    0.2592    0.9887 O   0  0  0  0  0  0  0  0  0  0  0  0
    7.9334    2.2979    1.7524 O   0  0  0  0  0  0  0  0  0  0  0  0
    6.9227   -1.7139   -0.0467 C   0  0  0  0  0  0  0  0  0  0  0  0
    6.5132   -2.1006    1.1032 O   0  0  0  0  0  0  0  0  0  0  0  0
    8.1790   -2.2392   -0.4209 O   0  0  0  0  0  0  0  0  0  0  0  0
    2.0703   -0.0388    0.6820 C   0  0  0  0  0  0  0  0  0  0  0  0
    0.7705    0.1727    1.1513 C   0  0  0  0  0  0  0  0  0  0  0  0
   -5.1277   -1.0005    0.3343 N   0  0  0  0  0  0  0  0  0  0  0  0
  -10.5097    1.8760    0.1902 H   0  0  0  0  0  0  0  0  0  0  0  0
  -10.4597    1.2749   -1.5123 H   0  0  0  0  0  0  0  0  0  0  0  0
   -7.7735    2.5770   -0.0352 H   0  0  0  0  0  0  0  0  0  0  0  0
   -5.4002    2.6991    0.1821 H   0  0  0  0  0  0  0  0  0  0  0  0
   -4.1558    1.5076    2.0760 H   0  0  0  0  0  0  0  0  0  0  0  0
   -3.2645    1.6284    0.5073 H   0  0  0  0  0  0  0  0  0  0  0  0
   -3.9911   -0.7602    2.0386 H   0  0  0  0  0  0  0  0  0  0  0  0
   -2.6843   -1.8461    0.3014 H   0  0  0  0  0  0  0  0  0  0  0  0
   -2.7703   -0.4358   -0.7689 H   0  0  0  0  0  0  0  0  0  0  0  0
   -1.8262    0.4384    1.8570 H   0  0  0  0  0  0  0  0  0  0  0  0
   -0.9594   -1.5691   -1.1421 H   0  0  0  0  0  0  0  0  0  0  0  0
    1.3742   -1.9350   -1.9662 H   0  0  0  0  0  0  0  0  0  0  0  0
    4.7555   -0.0434    0.5085 H   0  0  0  0  0  0  0  0  0  0  0  0
    6.0264   -1.4420   -1.8790 H   0  0  0  0  0  0  0  0  0  0  0  0
    6.5128    0.7248   -2.3760 H   0  0  0  0  0  0  0  0  0  0  0  0
    7.9208    0.0524   -1.5893 H   0  0  0  0  0  0  0  0  0  0  0  0
    7.5697    2.3400   -1.0157 H   0  0  0  0  0  0  0  0  0  0  0  0
    6.0243    1.9731   -0.1053 H   0  0  0  0  0  0  0  0  0  0  0  0
    8.6923    2.2752    2.4111 H   0  0  0  0  0  0  0  0  0  0  0  0
    8.5336   -3.1051   -0.0440 H   0  0  0  0  0  0  0  0  0  0  0  0
    2.9056    0.3919    1.1985 H   0  0  0  0  0  0  0  0  0  0  0  0
    0.5881    0.7665    2.0312 H   0  0  0  0  0  0  0  0  0  0  0  0
   -4.9445   -1.9748    0.0033 H   0  0  0  0  0  0  0  0  0  0  0  0
  1  2  1  0
  2  3  2  0
  3  4  1  0
  4  5  2  0
  4  6  1  0
  6  7  2  0
  7  8  1  0
  7  9  1  0
  9 10  1  0
 10 11  1  0
 11 12  1  0
 12 13  1  0
 13 14  1  0
 14 15  2  0
 15 16  1  0
 16 17  2  0
 17 18  1  0
 18 19  2  0
 18 20  1  0
 20 21  1  0
 21 22  1  0
 22 23  1  0
 23 24  1  0
 24 25  2  0
 24 26  1  0
 21 27  1  0
 27 28  2  0
 27 29  1  0
 17 30  1  0
 30 31  2  0
 11 32  1  0
  8  2  1  0
 31 14  1  0
 32  6  1  0
  1 33  1  0
  1 34  1  0
  8 35  1  0
  9 36  1  0
 10 37  1  0
 10 38  1  0
 11 39  1  1
 12 40  1  0
 12 41  1  0
 13 42  1  0
 15 43  1  0
 16 44  1  0
 20 45  1  0
 21 46  1  6
 22 47  1  0
 22 48  1  0
 23 49  1  0
 23 50  1  0
 26 51  1  0
 29 52  1  0
 30 53  1  0
 31 54  1  0
 32 55  1  0
M  END
$$$$

     RDKit          3D

 55 57  0  0  0  0  0  0  0  0999 V2000
    9.1581    1.4567   -1.0969 N   0  0  0  0  0  0  0  0  0  0  0  0
    7.9145    1.1786   -0.4876 C   0  0  0  0  0  0  0  0  0  0  0  0
    7.3162    2.0450    0.3611 N   0  0  0  0  0  0  0  0  0  0  0  0
    6.1171    1.7500    0.9315 C   0  0  0  0  0  0  0  0  0  0  0  0
    5.5318    2.5351    1.7262 O   0  0  0  0  0  0  0  0  0  0  0  0
    5.4788    0.5653    0.6631 C   0  0  0  0  0  0  0  0  0  0  0  0
    6.0895   -0.3142   -0.2009 C   0  0  0  0  0  0  0  0  0  0  0  0
    7.2700    0.0252   -0.7352 N   0  0  0  0  0  0  0  0  0  0  0  0
    5.4310   -1.5371   -0.4839 N   0  0  0  0  0  0  0  0  0  0  0  0
    4.2665   -2.0372    0.1991 C   0  0  0  0  0  0  0  0  0  0  0  0
    3.7421   -1.1534    1.2713 C   0  0  2  0  0  0  0  0  0  0  0  0
    2.2313   -1.1710    1.2446 C   0  0  0  0  0  0  0  0  0  0  0  0
    1.7560   -0.7021   -0.0327 N   0  0  0  0  0  0  0  0  0  0  0  0
    0.3577   -0.5842   -0.2511 C   0  0  0  0  0  0  0  0  0  0  0  0
   -0.5030   -0.9130    0.7633 C   0  0  0  0  0  0  0  0  0  0  0  0
   -1.8676   -0.7963    0.5806 C   0  0  0  0  0  0  0  0  0  0  0  0
   -2.3509   -0.3543   -0.6089 C   0  0  0  0  0  0  0  0  0  0  0  0
   -3.7736   -0.2034   -0.8321 C   0  0  0  0  0  0  0  0  0  0  0  0
   -4.2148    0.0231   -2.0137 O   0  0  0  0  0  0  0  0  0  0  0  0
   -4.6636   -0.3062    0.2643 N   0  0  0  0  0  0  0  0  0  0  0  0
   -6.0990   -0.1460   -0.0085 C   0  0  1  0  0  0  0  0  0  0  0  0
   -6.3198    1.2793   -0.4250 C   0  0  0  0  0  0  0  0  0  0  0  0
   -5.8517    2.1662    0.7352 C   0  0  0  0  0  0  0  0  0  0  0  0
   -6.6640    1.8330    1.9179 C   0  0  0  0  0  0  0  0  0  0  0  0
   -7.9128    1.8643    1.8477 O   0  0  0  0  0  0  0  0  0  0  0  0
   -6.0443    1.4861    3.0976 O   0  0  0  0  0  0  0  0  0  0  0  0
   -6.4740   -1.1367   -1.0418 C   0  0  0  0  0  0  0  0  0  0  0  0
   -5.7338   -1.9853   -1.5609 O   0  0  0  0  0  0  0  0  0  0  0  0
   -7.8091   -1.1218   -1.4857 O   0  0  0  0  0  0  0  0  0  0  0  0
   -1.4858   -0.0237   -1.6325 C   0  0  0  0  0  0  0  0  0  0  0  0
   -0.1433   -0.1393   -1.4510 C   0  0  0  0  0  0  0  0  0  0  0  0
    4.2420    0.1920    1.2184 N   0  0  0  0  0  0  0  0  0  0  0  0
    9.9922    1.6385   -0.5185 H   0  0  0  0  0  0  0  0  0  0  0  0
    9.2368    1.4796   -2.1257 H   0  0  0  0  0  0  0  0  0  0  0  0
    7.7037   -0.6608   -1.3839 H   0  0  0  0  0  0  0  0  0  0  0  0
    5.8163   -2.1263   -1.2484 H   0  0  0  0  0  0  0  0  0  0  0  0
    4.5929   -3.0240    0.6476 H   0  0  0  0  0  0  0  0  0  0  0  0
    3.5203   -2.2842   -0.5974 H   0  0  0  0  0  0  0  0  0  0  0  0
    4.0676   -1.5642    2.2741 H   0  0  0  0  0  0  0  0  0  0  0  0
    1.8317   -2.2040    1.3633 H   0  0  0  0  0  0  0  0  0  0  0  0
    1.8147   -0.5644    2.0874 H   0  0  0  0  0  0  0  0  0  0  0  0
    2.4032   -0.4526   -0.7843 H   0  0  0  0  0  0  0  0  0  0  0  0
   -0.1405   -1.2746    1.7380 H   0  0  0  0  0  0  0  0  0  0  0  0
   -2.4907   -1.0791    1.4329 H   0  0  0  0  0  0  0  0  0  0  0  0
   -4.3638   -0.4874    1.2605 H   0  0  0  0  0  0  0  0  0  0  0  0
   -6.6863   -0.4087    0.9114 H   0  0  0  0  0  0  0  0  0  0  0  0
   -7.3981    1.4751   -0.6469 H   0  0  0  0  0  0  0  0  0  0  0  0
   -5.7700    1.5887   -1.3119 H   0  0  0  0  0  0  0  0  0  0  0  0
   -4.7772    1.9792    0.9363 H   0  0  0  0  0  0  0  0  0  0  0  0
   -5.9491    3.2455    0.4609 H   0  0  0  0  0  0  0  0  0  0  0  0
   -6.4597    1.5536    4.0055 H   0  0  0  0  0  0  0  0  0  0  0  0
   -8.2622   -2.0001   -1.7692 H   0  0  0  0  0  0  0  0  0  0  0  0
   -1.8396    0.3384   -2.6108 H   0  0  0  0  0  0  0  0  0  0  0  0
    0.5284    0.1209   -2.2554 H   0  0  0  0  0  0  0  0  0  0  0  0
    3.6379    0.9361    1.6241 H   0  0  0  0  0  0  0  0  0  0  0  0
  1  2  1  0
  2  3  2  0
  3  4  1  0
  4  5  2  0
  4  6  1  0
  6  7  2  0
  7  8  1  0
  7  9  1  0
  9 10  1  0
 10 11  1  0
 11 12  1  0
 12 13  1  0
 13 14  1  0
 14 15  2  0
 15 16  1  0
 16 17  2  0
 17 18  1  0
 18 19  2  0
 18 20  1  0
 20 21  1  0
 21 22  1  0
 22 23  1  0
 23 24  1  0
 24 25  2  0
 24 26  1  0
 21 27  1  0
 27 28  2  0
 27 29  1  0
 17 30  1  0
 30 31  2  0
 11 32  1  0
  8  2  1  0
 31 14  1  0
 32  6  1  0
  1 33  1  0
  1 34  1  0
  8 35  1  0
  9 36  1  0
 10 37  1  0
 10 38  1  0
 11 39  1  1
 12 40  1  0
 12 41  1  0
 13 42  1  0
 15 43  1  0
 16 44  1  0
 20 45  1  0
 21 46  1  1
 22 47  1  0
 22 48  1  0
 23 49  1  0
 23 50  1  0
 26 51  1  0
 29 52  1  0
 30 53  1  0
 31 54  1  0
 32 55  1  0
M  END
$$$$

     RDKit          3D

 55 57  0  0  0  0  0  0  0  0999 V2000
   -8.9392    0.9982    1.5829 N   0  0  0  0  0  0  0  0  0  0  0  0
   -7.6235    1.1241    1.0670 C   0  0  0  0  0  0  0  0  0  0  0  0
   -6.7025    1.7085    1.8570 N   0  0  0  0  0  0  0  0  0  0  0  0
   -5.4425    1.8551    1.4231 C   0  0  0  0  0  0  0  0  0  0  0  0
   -4.5432    2.3919    2.1160 O   0  0  0  0  0  0  0  0  0  0  0  0
   -5.0912    1.4010    0.1539 C   0  0  0  0  0  0  0  0  0  0  0  0
   -6.0455    0.8078   -0.6360 C   0  0  0  0  0  0  0  0  0  0  0  0
   -7.2890    0.6841   -0.1591 N   0  0  0  0  0  0  0  0  0  0  0  0
   -5.6429    0.3549   -1.9301 N   0  0  0  0  0  0  0  0  0  0  0  0
   -4.4109    0.8695   -2.4878 C   0  0  0  0  0  0  0  0  0  0  0  0
   -3.3285    0.7274   -1.4311 C   0  0  2  0  0  0  0  0  0  0  0  0
   -3.3287   -0.6972   -0.9609 C   0  0  0  0  0  0  0  0  0  0  0  0
   -2.3503   -0.9953    0.0447 N   0  0  0  0  0  0  0  0  0  0  0  0
   -0.9544   -0.9766   -0.2017 C   0  0  0  0  0  0  0  0  0  0  0  0
   -0.0523   -1.0560    0.8503 C   0  0  0  0  0  0  0  0  0  0  0  0
    1.3099   -1.0568    0.6723 C   0  0  0  0  0  0  0  0  0  0  0  0
    1.8156   -0.9761   -0.5954 C   0  0  0  0  0  0  0  0  0  0  0  0
    3.2599   -0.9710   -0.8758 C   0  0  0  0  0  0  0  0  0  0  0  0
    3.6889   -0.8984   -2.0520 O   0  0  0  0  0  0  0  0  0  0  0  0
    4.2045   -1.0480    0.1773 N   0  0  0  0  0  0  0  0  0  0  0  0
    5.6392   -1.0389   -0.1667 C   0  0  1  0  0  0  0  0  0  0  0  0
    6.2277    0.1484    0.5502 C   0  0  0  0  0  0  0  0  0  0  0  0
    7.6875    0.3496    0.3327 C   0  0  0  0  0  0  0  0  0  0  0  0
    8.0794    1.5772    1.1109 C   0  0  0  0  0  0  0  0  0  0  0  0
    9.2802    1.9411    1.0735 O   0  0  0  0  0  0  0  0  0  0  0  0
    7.1867    2.3153    1.8576 O   0  0  0  0  0  0  0  0  0  0  0  0
    6.2715   -2.2703    0.3478 C   0  0  0  0  0  0  0  0  0  0  0  0
    5.5270   -3.0833    0.9941 O   0  0  0  0  0  0  0  0  0  0  0  0
    7.5829   -2.6270    0.1976 O   0  0  0  0  0  0  0  0  0  0  0  0
    0.9516   -0.8956   -1.6733 C   0  0  0  0  0  0  0  0  0  0  0  0
   -0.4079   -0.8975   -1.4579 C   0  0  0  0  0  0  0  0  0  0  0  0
   -3.7531    1.5623   -0.2962 N   0  0  0  0  0  0  0  0  0  0  0  0
   -9.5218    1.8534    1.6388 H   0  0  0  0  0  0  0  0  0  0  0  0
   -9.2443    0.0453    1.8776 H   0  0  0  0  0  0  0  0  0  0  0  0
   -8.0267    0.2251   -0.7704 H   0  0  0  0  0  0  0  0  0  0  0  0
   -6.2632   -0.3397   -2.4303 H   0  0  0  0  0  0  0  0  0  0  0  0
   -4.1886    0.2705   -3.3900 H   0  0  0  0  0  0  0  0  0  0  0  0
   -4.5327    1.9556   -2.7306 H   0  0  0  0  0  0  0  0  0  0  0  0
   -2.3475    1.0440   -1.7914 H   0  0  0  0  0  0  0  0  0  0  0  0
   -3.1561   -1.4103   -1.8142 H   0  0  0  0  0  0  0  0  0  0  0  0
   -4.3423   -0.9527   -0.5841 H   0  0  0  0  0  0  0  0  0  0  0  0
   -2.6740   -1.2433    1.0233 H   0  0  0  0  0  0  0  0  0  0  0  0
   -0.4392   -1.1207    1.8644 H   0  0  0  0  0  0  0  0  0  0  0  0
    1.9646   -1.1197    1.5137 H   0  0  0  0  0  0  0  0  0  0  0  0
    3.9450   -1.1108    1.1841 H   0  0  0  0  0  0  0  0  0  0  0  0
    5.7652   -0.9685   -1.2680 H   0  0  0  0  0  0  0  0  0  0  0  0
    6.0501   -0.0434    1.6493 H   0  0  0  0  0  0  0  0  0  0  0  0
    5.6269    1.0716    0.3438 H   0  0  0  0  0  0  0  0  0  0  0  0
    7.8704    0.5263   -0.7526 H   0  0  0  0  0  0  0  0  0  0  0  0
    8.2585   -0.5026    0.7192 H   0  0  0  0  0  0  0  0  0  0  0  0
    7.2890    3.3111    2.0046 H   0  0  0  0  0  0  0  0  0  0  0  0
    7.9820   -3.3862    0.7310 H   0  0  0  0  0  0  0  0  0  0  0  0
    1.3468   -0.8304   -2.6945 H   0  0  0  0  0  0  0  0  0  0  0  0
   -1.0691   -0.8424   -2.3374 H   0  0  0  0  0  0  0  0  0  0  0  0
   -3.1000    2.2392    0.1539 H   0  0  0  0  0  0  0  0  0  0  0  0
  1  2  1  0
  2  3  2  0
  3  4  1  0
  4  5  2  0
  4  6  1  0
  6  7  2  0
  7  8  1  0
  7  9  1  0
  9 10  1  0
 10 11  1  0
 11 12  1  0
 12 13  1  0
 13 14  1  0
 14 15  2  0
 15 16  1  0
 16 17  2  0
 17 18  1  0
 18 19  2  0
 18 20  1  0
 20 21  1  0
 21 22  1  0
 22 23  1  0
 23 24  1  0
 24 25  2  0
 24 26  1  0
 21 27  1  0
 27 28  2  0
 27 29  1  0
 17 30  1  0
 30 31  2  0
 11 32  1  0
  8  2  1  0
 31 14  1  0
 32  6  1  0
  1 33  1  0
  1 34  1  0
  8 35  1  0
  9 36  1  0
 10 37  1  0
 10 38  1  0
 11 39  1  6
 12 40  1  0
 12 41  1  0
 13 42  1  0
 15 43  1  0
 16 44  1  0
 20 45  1  0
 21 46  1  6
 22 47  1  0
 22 48  1  0
 23 49  1  0
 23 50  1  0
 26 51  1  0
 29 52  1  0
 30 53  1  0
 31 54  1  0
 32 55  1  0
M  END
$$$$

     RDKit          3D

 55 57  0  0  0  0  0  0  0  0999 V2000
    9.9678   -0.3689   -0.8179 N   0  0  0  0  0  0  0  0  0  0  0  0
    8.5633   -0.1131   -0.9203 C   0  0  0  0  0  0  0  0  0  0  0  0
    7.9479    0.0286   -2.1072 N   0  0  0  0  0  0  0  0  0  0  0  0
    6.6215    0.2699   -2.1934 C   0  0  0  0  0  0  0  0  0  0  0  0
    6.0228    0.4064   -3.2977 O   0  0  0  0  0  0  0  0  0  0  0  0
    5.8398    0.3813   -1.0551 C   0  0  0  0  0  0  0  0  0  0  0  0
    6.4799    0.2345    0.1583 C   0  0  0  0  0  0  0  0  0  0  0  0
    7.8177   -0.0076    0.1931 N   0  0  0  0  0  0  0  0  0  0  0  0
    5.6968    0.3453    1.3269 N   0  0  0  0  0  0  0  0  0  0  0  0
    4.3462    0.8335    1.3806 C   0  0  0  0  0  0  0  0  0  0  0  0
    3.7989    1.2723    0.0611 C   0  0  2  0  0  0  0  0  0  0  0  0
    2.3135    1.1264   -0.0291 C   0  0  0  0  0  0  0  0  0  0  0  0
    1.8787   -0.2354    0.1483 N   0  0  0  0  0  0  0  0  0  0  0  0
    0.5150   -0.5994    0.1026 C   0  0  0  0  0  0  0  0  0  0  0  0
   -0.4233    0.3863   -0.1193 C   0  0  0  0  0  0  0  0  0  0  0  0
   -1.7760    0.0314   -0.1655 C   0  0  0  0  0  0  0  0  0  0  0  0
   -2.1841   -1.2574    0.0028 C   0  0  0  0  0  0  0  0  0  0  0  0
   -3.5863   -1.6539   -0.0403 C   0  0  0  0  0  0  0  0  0  0  0  0
   -3.8970   -2.8724    0.1237 O   0  0  0  0  0  0  0  0  0  0  0  0
   -4.6518   -0.7602   -0.2564 N   0  0  0  0  0  0  0  0  0  0  0  0
   -6.0417   -1.1550   -0.2987 C   0  0  1  0  0  0  0  0  0  0  0  0
   -6.8714   -0.4888    0.7635 C   0  0  0  0  0  0  0  0  0  0  0  0
   -6.8475    1.0220    0.6270 C   0  0  0  0  0  0  0  0  0  0  0  0
   -7.6902    1.5954    1.7128 C   0  0  0  0  0  0  0  0  0  0  0  0
   -8.2836    0.8577    2.5561 O   0  0  0  0  0  0  0  0  0  0  0  0
   -7.8697    2.9656    1.8579 O   0  0  0  0  0  0  0  0  0  0  0  0
   -6.6504   -0.8809   -1.6274 C   0  0  0  0  0  0  0  0  0  0  0  0
   -5.9110   -0.3603   -2.5171 O   0  0  0  0  0  0  0  0  0  0  0  0
   -7.9758   -1.1871   -1.8710 O   0  0  0  0  0  0  0  0  0  0  0  0
   -1.2117   -2.2103    0.2222 C   0  0  0  0  0  0  0  0  0  0  0  0
    0.1167   -1.9077    0.2746 C   0  0  0  0  0  0  0  0  0  0  0  0
    4.4587    0.6310   -1.0709 N   0  0  0  0  0  0  0  0  0  0  0  0
   10.6576    0.4137   -0.8762 H   0  0  0  0  0  0  0  0  0  0  0  0
   10.3587   -1.3268   -0.6835 H   0  0  0  0  0  0  0  0  0  0  0  0
    8.2763   -0.1148    1.1439 H   0  0  0  0  0  0  0  0  0  0  0  0
    6.1285    0.0502    2.2276 H   0  0  0  0  0  0  0  0  0  0  0  0
    3.6618    0.1064    1.9052 H   0  0  0  0  0  0  0  0  0  0  0  0
    4.3584    1.7277    2.0666 H   0  0  0  0  0  0  0  0  0  0  0  0
    4.0196    2.3729   -0.0664 H   0  0  0  0  0  0  0  0  0  0  0  0
    1.8599    1.7307    0.7851 H   0  0  0  0  0  0  0  0  0  0  0  0
    1.9658    1.5601   -0.9900 H   0  0  0  0  0  0  0  0  0  0  0  0
    2.6119   -0.9606    0.3150 H   0  0  0  0  0  0  0  0  0  0  0  0
   -0.1052    1.4168   -0.2545 H   0  0  0  0  0  0  0  0  0  0  0  0
   -2.4901    0.8052   -0.3380 H   0  0  0  0  0  0  0  0  0  0  0  0
   -4.4454    0.2449   -0.3955 H   0  0  0  0  0  0  0  0  0  0  0  0
   -6.0856   -2.2457   -0.1323 H   0  0  0  0  0  0  0  0  0  0  0  0
   -7.9168   -0.8331    0.6225 H   0  0  0  0  0  0  0  0  0  0  0  0
   -6.5691   -0.7788    1.7837 H   0  0  0  0  0  0  0  0  0  0  0  0
   -5.8275    1.4212    0.7302 H   0  0  0  0  0  0  0  0  0  0  0  0
   -7.2623    1.3609   -0.3286 H   0  0  0  0  0  0  0  0  0  0  0  0
   -8.7281    3.3762    2.2109 H   0  0  0  0  0  0  0  0  0  0  0  0
   -8.3111   -1.1095   -2.8343 H   0  0  0  0  0  0  0  0  0  0  0  0
   -1.4974   -3.2436    0.3602 H   0  0  0  0  0  0  0  0  0  0  0  0
    0.9027   -2.6384    0.4458 H   0  0  0  0  0  0  0  0  0  0  0  0
    3.9234    0.3352   -1.9343 H   0  0  0  0  0  0  0  0  0  0  0  0
  1  2  1  0
  2  3  2  0
  3  4  1  0
  4  5  2  0
  4  6  1  0
  6  7  2  0
  7  8  1  0
  7  9  1  0
  9 10  1  0
 10 11  1  0
 11 12  1  0
 12 13  1  0
 13 14  1  0
 14 15  2  0
 15 16  1  0
 16 17  2  0
 17 18  1  0
 18 19  2  0
 18 20  1  0
 20 21  1  0
 21 22  1  0
 22 23  1  0
 23 24  1  0
 24 25  2  0
 24 26  1  0
 21 27  1  0
 27 28  2  0
 27 29  1  0
 17 30  1  0
 30 31  2  0
 11 32  1  0
  8  2  1  0
 31 14  1  0
 32  6  1  0
  1 33  1  0
  1 34  1  0
  8 35  1  0
  9 36  1  0
 10 37  1  0
 10 38  1  0
 11 39  1  6
 12 40  1  0
 12 41  1  0
 13 42  1  0
 15 43  1  0
 16 44  1  0
 20 45  1  0
 21 46  1  1
 22 47  1  0
 22 48  1  0
 23 49  1  0
 23 50  1  0
 26 51  1  0
 29 52  1  0
 30 53  1  0
 31 54  1  0
 32 55  1  0
M  END
$$$$

     RDKit          3D

 55 57  0  0  0  0  0  0  0  0999 V2000
   -9.5489   -0.4001    1.1244 N   0  0  0  0  0  0  0  0  0  0  0  0
   -8.1583   -0.6039    1.0363 C   0  0  0  0  0  0  0  0  0  0  0  0
   -7.6500   -1.8198    1.2381 N   0  0  0  0  0  0  0  0  0  0  0  0
   -6.3376   -2.0959    1.1722 C   0  0  0  0  0  0  0  0  0  0  0  0
   -5.8584   -3.2434    1.3628 O   0  0  0  0  0  0  0  0  0  0  0  0
   -5.4787   -1.0340    0.8742 C   0  0  0  0  0  0  0  0  0  0  0  0
   -5.9895    0.2247    0.6637 C   0  0  0  0  0  0  0  0  0  0  0  0
   -7.3310    0.4115    0.7507 N   0  0  0  0  0  0  0  0  0  0  0  0
   -5.0939    1.2808    0.3632 N   0  0  0  0  0  0  0  0  0  0  0  0
   -3.6885    1.1888    0.6636 C   0  0  0  0  0  0  0  0  0  0  0  0
   -3.1549   -0.2142    0.3300 C   0  0  2  0  0  0  0  0  0  0  0  0
   -3.1503   -0.2723   -1.1823 C   0  0  0  0  0  0  0  0  0  0  0  0
   -2.2988    0.7512   -1.6816 N   0  0  0  0  0  0  0  0  0  0  0  0
   -0.8928    0.7215   -1.4852 C   0  0  0  0  0  0  0  0  0  0  0  0
   -0.1049    1.8374   -1.7779 C   0  0  0  0  0  0  0  0  0  0  0  0
    1.2616    1.8453   -1.6168 C   0  0  0  0  0  0  0  0  0  0  0  0
    1.9149    0.7191   -1.1478 C   0  0  0  0  0  0  0  0  0  0  0  0
    3.3733    0.7537   -0.9841 C   0  0  0  0  0  0  0  0  0  0  0  0
    4.0108    1.8085   -1.2614 O   0  0  0  0  0  0  0  0  0  0  0  0
    4.1345   -0.3413   -0.5253 N   0  0  0  0  0  0  0  0  0  0  0  0
    5.5973   -0.3031   -0.3623 C   0  0  1  0  0  0  0  0  0  0  0  0
    5.9465   -0.5838    1.0610 C   0  0  0  0  0  0  0  0  0  0  0  0
    7.3983   -0.5853    1.3913 C   0  0  0  0  0  0  0  0  0  0  0  0
    8.0130    0.7190    1.1327 C   0  0  0  0  0  0  0  0  0  0  0  0
    7.3647    1.7038    0.7345 O   0  0  0  0  0  0  0  0  0  0  0  0
    9.3876    0.8910    1.3347 O   0  0  0  0  0  0  0  0  0  0  0  0
    6.2501   -1.2282   -1.3132 C   0  0  0  0  0  0  0  0  0  0  0  0
    5.5192   -1.8953   -2.0910 O   0  0  0  0  0  0  0  0  0  0  0  0
    7.6042   -1.4066   -1.4029 O   0  0  0  0  0  0  0  0  0  0  0  0
    1.1640   -0.3842   -0.8553 C   0  0  0  0  0  0  0  0  0  0  0  0
   -0.2204   -0.3859   -1.0209 C   0  0  0  0  0  0  0  0  0  0  0  0
   -4.0827   -1.2270    0.7841 N   0  0  0  0  0  0  0  0  0  0  0  0
   -9.9817    0.5665    1.2163 H   0  0  0  0  0  0  0  0  0  0  0  0
  -10.2450   -1.1771    1.1059 H   0  0  0  0  0  0  0  0  0  0  0  0
   -7.6634    1.3863    0.5819 H   0  0  0  0  0  0  0  0  0  0  0  0
   -5.5127    2.1290   -0.0889 H   0  0  0  0  0  0  0  0  0  0  0  0
   -3.1683    1.9363    0.0214 H   0  0  0  0  0  0  0  0  0  0  0  0
   -3.4932    1.4356    1.7087 H   0  0  0  0  0  0  0  0  0  0  0  0
   -2.1660   -0.3121    0.7898 H   0  0  0  0  0  0  0  0  0  0  0  0
   -4.2123   -0.0581   -1.4931 H   0  0  0  0  0  0  0  0  0  0  0  0
   -2.9076   -1.2861   -1.5589 H   0  0  0  0  0  0  0  0  0  0  0  0
   -2.6980    1.5749   -2.2216 H   0  0  0  0  0  0  0  0  0  0  0  0
   -0.6116    2.7084   -2.1408 H   0  0  0  0  0  0  0  0  0  0  0  0
    1.8343    2.7461   -1.8605 H   0  0  0  0  0  0  0  0  0  0  0  0
    3.6680   -1.2266   -0.2843 H   0  0  0  0  0  0  0  0  0  0  0  0
    5.8786    0.7196   -0.6674 H   0  0  0  0  0  0  0  0  0  0  0  0
    5.4274   -1.5228    1.3875 H   0  0  0  0  0  0  0  0  0  0  0  0
    5.4746    0.2178    1.7050 H   0  0  0  0  0  0  0  0  0  0  0  0
    7.4889   -0.7910    2.5025 H   0  0  0  0  0  0  0  0  0  0  0  0
    7.9457   -1.4200    0.8989 H   0  0  0  0  0  0  0  0  0  0  0  0
    9.7601    1.7704    1.7222 H   0  0  0  0  0  0  0  0  0  0  0  0
    8.0420   -1.4998   -2.3312 H   0  0  0  0  0  0  0  0  0  0  0  0
    1.6533   -1.2931   -0.4814 H   0  0  0  0  0  0  0  0  0  0  0  0
   -0.7266   -1.2874   -0.7794 H   0  0  0  0  0  0  0  0  0  0  0  0
   -3.6871   -2.1490    1.0587 H   0  0  0  0  0  0  0  0  0  0  0  0
  1  2  1  0
  2  3  2  0
  3  4  1  0
  4  5  2  0
  4  6  1  0
  6  7  2  0
  7  8  1  0
  7  9  1  0
  9 10  1  0
 10 11  1  0
 11 12  1  0
 12 13  1  0
 13 14  1  0
 14 15  2  0
 15 16  1  0
 16 17  2  0
 17 18  1  0
 18 19  2  0
 18 20  1  0
 20 21  1  0
 21 22  1  0
 22 23  1  0
 23 24  1  0
 24 25  2  0
 24 26  1  0
 21 27  1  0
 27 28  2  0
 27 29  1  0
 17 30  1  0
 30 31  2  0
 11 32  1  0
  8  2  1  0
 31 14  1  0
 32  6  1  0
  1 33  1  0
  1 34  1  0
  8 35  1  0
  9 36  1  0
 10 37  1  0
 10 38  1  0
 11 39  1  1
 12 40  1  0
 12 41  1  0
 13 42  1  0
 15 43  1  0
 16 44  1  0
 20 45  1  0
 21 46  1  6
 22 47  1  0
 22 48  1  0
 23 49  1  0
 23 50  1  0
 26 51  1  0
 29 52  1  0
 30 53  1  0
 31 54  1  0
 32 55  1  0
M  END
$$$$

     RDKit          3D

 55 57  0  0  0  0  0  0  0  0999 V2000
   10.3821    0.5898    0.2258 N   0  0  0  0  0  0  0  0  0  0  0  0
    8.9793    0.6551    0.5050 C   0  0  0  0  0  0  0  0  0  0  0  0
    8.5235    1.1963    1.6519 N   0  0  0  0  0  0  0  0  0  0  0  0
    7.1952    1.2340    1.8672 C   0  0  0  0  0  0  0  0  0  0  0  0
    6.7015    1.7305    2.9274 O   0  0  0  0  0  0  0  0  0  0  0  0
    6.3012    0.7383    0.9537 C   0  0  0  0  0  0  0  0  0  0  0  0
    6.8021    0.1897   -0.2129 C   0  0  0  0  0  0  0  0  0  0  0  0
    8.1496    0.1534   -0.4275 N   0  0  0  0  0  0  0  0  0  0  0  0
    5.8883   -0.3283   -1.1694 N   0  0  0  0  0  0  0  0  0  0  0  0
    4.5012    0.0739   -1.0638 C   0  0  0  0  0  0  0  0  0  0  0  0
    4.0880   -0.1275    0.3746 C   0  0  2  0  0  0  0  0  0  0  0  0
    2.6081    0.1053    0.5719 C   0  0  0  0  0  0  0  0  0  0  0  0
    1.8976   -0.8418   -0.2661 N   0  0  0  0  0  0  0  0  0  0  0  0
    0.4731   -0.8250   -0.2599 C   0  0  0  0  0  0  0  0  0  0  0  0
   -0.2284    0.0663    0.5207 C   0  0  0  0  0  0  0  0  0  0  0  0
   -1.6228    0.1090    0.5501 C   0  0  0  0  0  0  0  0  0  0  0  0
   -2.3530   -0.7668   -0.2251 C   0  0  0  0  0  0  0  0  0  0  0  0
   -3.8140   -0.7716   -0.2379 C   0  0  0  0  0  0  0  0  0  0  0  0
   -4.3692   -1.6294   -1.0047 O   0  0  0  0  0  0  0  0  0  0  0  0
   -4.6096    0.1048    0.5379 N   0  0  0  0  0  0  0  0  0  0  0  0
   -6.0564    0.0685    0.5024 C   0  0  1  0  0  0  0  0  0  0  0  0
   -6.5002    0.5110   -0.8422 C   0  0  0  0  0  0  0  0  0  0  0  0
   -7.9641    0.5435   -1.0867 C   0  0  0  0  0  0  0  0  0  0  0  0
   -8.7474    1.4256   -0.2301 C   0  0  0  0  0  0  0  0  0  0  0  0
   -8.1913    2.1196    0.6423 O   0  0  0  0  0  0  0  0  0  0  0  0
  -10.1249    1.5258   -0.3507 O   0  0  0  0  0  0  0  0  0  0  0  0
   -6.5123   -1.2794    0.8759 C   0  0  0  0  0  0  0  0  0  0  0  0
   -5.6699   -2.1496    1.1783 O   0  0  0  0  0  0  0  0  0  0  0  0
   -7.8464   -1.6574    0.9157 O   0  0  0  0  0  0  0  0  0  0  0  0
   -1.6331   -1.6513   -0.9996 C   0  0  0  0  0  0  0  0  0  0  0  0
   -0.2567   -1.7008   -1.0351 C   0  0  0  0  0  0  0  0  0  0  0  0
    4.8893    0.7747    1.1754 N   0  0  0  0  0  0  0  0  0  0  0  0
   11.0322    0.5619    1.0551 H   0  0  0  0  0  0  0  0  0  0  0  0
   10.7848    0.5690   -0.7162 H   0  0  0  0  0  0  0  0  0  0  0  0
    8.5006   -0.2733   -1.3308 H   0  0  0  0  0  0  0  0  0  0  0  0
    6.2173   -0.9709   -1.9114 H   0  0  0  0  0  0  0  0  0  0  0  0
    4.4902    1.1875   -1.2530 H   0  0  0  0  0  0  0  0  0  0  0  0
    3.8532   -0.4561   -1.7841 H   0  0  0  0  0  0  0  0  0  0  0  0
    4.2986   -1.1786    0.6554 H   0  0  0  0  0  0  0  0  0  0  0  0
    2.3072    1.1407    0.3253 H   0  0  0  0  0  0  0  0  0  0  0  0
    2.3143   -0.0979    1.6072 H   0  0  0  0  0  0  0  0  0  0  0  0
    2.3824   -1.5365   -0.8747 H   0  0  0  0  0  0  0  0  0  0  0  0
    0.3475    0.7656    1.1396 H   0  0  0  0  0  0  0  0  0  0  0  0
   -2.1087    0.8348    1.1862 H   0  0  0  0  0  0  0  0  0  0  0  0
   -4.1221    0.7916    1.1480 H   0  0  0  0  0  0  0  0  0  0  0  0
   -6.4494    0.7502    1.2970 H   0  0  0  0  0  0  0  0  0  0  0  0
   -5.9866   -0.0672   -1.6328 H   0  0  0  0  0  0  0  0  0  0  0  0
   -6.1237    1.5696   -0.9718 H   0  0  0  0  0  0  0  0  0  0  0  0
   -8.1261    0.8718   -2.1539 H   0  0  0  0  0  0  0  0  0  0  0  0
   -8.3477   -0.5107   -1.0735 H   0  0  0  0  0  0  0  0  0  0  0  0
  -10.6477    1.7930    0.4850 H   0  0  0  0  0  0  0  0  0  0  0  0
   -8.1315   -2.5869    0.6051 H   0  0  0  0  0  0  0  0  0  0  0  0
   -2.1850   -2.3587   -1.6255 H   0  0  0  0  0  0  0  0  0  0  0  0
    0.2837   -2.4136   -1.6594 H   0  0  0  0  0  0  0  0  0  0  0  0
    4.5360    1.4287    1.8784 H   0  0  0  0  0  0  0  0  0  0  0  0
  1  2  1  0
  2  3  2  0
  3  4  1  0
  4  5  2  0
  4  6  1  0
  6  7  2  0
  7  8  1  0
  7  9  1  0
  9 10  1  0
 10 11  1  0
 11 12  1  0
 12 13  1  0
 13 14  1  0
 14 15  2  0
 15 16  1  0
 16 17  2  0
 17 18  1  0
 18 19  2  0
 18 20  1  0
 20 21  1  0
 21 22  1  0
 22 23  1  0
 23 24  1  0
 24 25  2  0
 24 26  1  0
 21 27  1  0
 27 28  2  0
 27 29  1  0
 17 30  1  0
 30 31  2  0
 11 32  1  0
  8  2  1  0
 31 14  1  0
 32  6  1  0
  1 33  1  0
  1 34  1  0
  8 35  1  0
  9 36  1  0
 10 37  1  0
 10 38  1  0
 11 39  1  1
 12 40  1  0
 12 41  1  0
 13 42  1  0
 15 43  1  0
 16 44  1  0
 20 45  1  0
 21 46  1  1
 22 47  1  0
 22 48  1  0
 23 49  1  0
 23 50  1  0
 26 51  1  0
 29 52  1  0
 30 53  1  0
 31 54  1  0
 32 55  1  0
M  END
$$$$

     RDKit          3D

 55 57  0  0  0  0  0  0  0  0999 V2000
    9.9053    0.4521    2.0631 N   0  0  0  0  0  0  0  0  0  0  0  0
    8.5546    0.3889    1.6623 C   0  0  0  0  0  0  0  0  0  0  0  0
    7.5406    0.6770    2.5288 N   0  0  0  0  0  0  0  0  0  0  0  0
    6.2622    0.6091    2.1289 C   0  0  0  0  0  0  0  0  0  0  0  0
    5.3272    0.8735    2.9232 O   0  0  0  0  0  0  0  0  0  0  0  0
    5.9432    0.2501    0.8458 C   0  0  0  0  0  0  0  0  0  0  0  0
    6.9568   -0.0431   -0.0382 C   0  0  0  0  0  0  0  0  0  0  0  0
    8.2310    0.0372    0.4040 N   0  0  0  0  0  0  0  0  0  0  0  0
    6.6197   -0.4099   -1.3568 N   0  0  0  0  0  0  0  0  0  0  0  0
    5.2823   -0.3682   -1.9048 C   0  0  0  0  0  0  0  0  0  0  0  0
    4.2779   -0.6001   -0.8157 C   0  0  2  0  0  0  0  0  0  0  0  0
    2.8647   -0.3568   -1.2416 C   0  0  0  0  0  0  0  0  0  0  0  0
    1.9479   -0.5898   -0.1661 N   0  0  0  0  0  0  0  0  0  0  0  0
    0.5393   -0.4307   -0.3386 C   0  0  0  0  0  0  0  0  0  0  0  0
    0.0210   -0.0703   -1.5615 C   0  0  0  0  0  0  0  0  0  0  0  0
   -1.3345    0.0929   -1.7636 C   0  0  0  0  0  0  0  0  0  0  0  0
   -2.2252   -0.1065   -0.7179 C   0  0  0  0  0  0  0  0  0  0  0  0
   -3.6675    0.0650   -0.9560 C   0  0  0  0  0  0  0  0  0  0  0  0
   -4.1234    0.1403   -2.1325 O   0  0  0  0  0  0  0  0  0  0  0  0
   -4.6146    0.1550    0.0971 N   0  0  0  0  0  0  0  0  0  0  0  0
   -6.0555    0.3237   -0.1258 C   0  0  1  0  0  0  0  0  0  0  0  0
   -6.7422   -0.9145    0.3123 C   0  0  0  0  0  0  0  0  0  0  0  0
   -8.2137   -0.9802    0.2546 C   0  0  0  0  0  0  0  0  0  0  0  0
   -8.8502   -0.0813    1.2329 C   0  0  0  0  0  0  0  0  0  0  0  0
   -8.1413    0.3631    2.1886 O   0  0  0  0  0  0  0  0  0  0  0  0
  -10.1720    0.3213    1.1939 O   0  0  0  0  0  0  0  0  0  0  0  0
   -6.5676    1.6185    0.2883 C   0  0  0  0  0  0  0  0  0  0  0  0
   -5.8973    2.4349    1.0138 O   0  0  0  0  0  0  0  0  0  0  0  0
   -7.8398    2.1109   -0.0683 O   0  0  0  0  0  0  0  0  0  0  0  0
   -1.7099   -0.4664    0.5041 C   0  0  0  0  0  0  0  0  0  0  0  0
   -0.3312   -0.6282    0.6939 C   0  0  0  0  0  0  0  0  0  0  0  0
    4.6103    0.1567    0.3657 N   0  0  0  0  0  0  0  0  0  0  0  0
   10.3553    1.3704    2.1960 H   0  0  0  0  0  0  0  0  0  0  0  0
   10.4475   -0.4108    2.2249 H   0  0  0  0  0  0  0  0  0  0  0  0
    8.9722   -0.1916   -0.2928 H   0  0  0  0  0  0  0  0  0  0  0  0
    7.4315   -0.7350   -1.9633 H   0  0  0  0  0  0  0  0  0  0  0  0
    5.2314   -1.1906   -2.6567 H   0  0  0  0  0  0  0  0  0  0  0  0
    5.1673    0.6169   -2.4129 H   0  0  0  0  0  0  0  0  0  0  0  0
    4.3856   -1.6867   -0.5249 H   0  0  0  0  0  0  0  0  0  0  0  0
    2.6644   -1.0292   -2.1196 H   0  0  0  0  0  0  0  0  0  0  0  0
    2.8169    0.6905   -1.6458 H   0  0  0  0  0  0  0  0  0  0  0  0
    2.3423   -0.8852    0.7662 H   0  0  0  0  0  0  0  0  0  0  0  0
    0.6902    0.0933   -2.3946 H   0  0  0  0  0  0  0  0  0  0  0  0
   -1.7583    0.3801   -2.7349 H   0  0  0  0  0  0  0  0  0  0  0  0
   -4.2539    0.0974    1.0739 H   0  0  0  0  0  0  0  0  0  0  0  0
   -6.1391    0.3163   -1.2774 H   0  0  0  0  0  0  0  0  0  0  0  0
   -6.3999   -1.1311    1.3650 H   0  0  0  0  0  0  0  0  0  0  0  0
   -6.2838   -1.7609   -0.2897 H   0  0  0  0  0  0  0  0  0  0  0  0
   -8.6301   -0.8581   -0.7717 H   0  0  0  0  0  0  0  0  0  0  0  0
   -8.5199   -2.0347    0.5352 H   0  0  0  0  0  0  0  0  0  0  0  0
  -10.4625    1.0996    1.7615 H   0  0  0  0  0  0  0  0  0  0  0  0
   -7.9210    3.1219   -0.2253 H   0  0  0  0  0  0  0  0  0  0  0  0
   -2.3948   -0.6269    1.3322 H   0  0  0  0  0  0  0  0  0  0  0  0
   -0.0013   -0.9142    1.6866 H   0  0  0  0  0  0  0  0  0  0  0  0
    3.8621    0.6446    0.8779 H   0  0  0  0  0  0  0  0  0  0  0  0
  1  2  1  0
  2  3  2  0
  3  4  1  0
  4  5  2  0
  4  6  1  0
  6  7  2  0
  7  8  1  0
  7  9  1  0
  9 10  1  0
 10 11  1  0
 11 12  1  0
 12 13  1  0
 13 14  1  0
 14 15  2  0
 15 16  1  0
 16 17  2  0
 17 18  1  0
 18 19  2  0
 18 20  1  0
 20 21  1  0
 21 22  1  0
 22 23  1  0
 23 24  1  0
 24 25  2  0
 24 26  1  0
 21 27  1  0
 27 28  2  0
 27 29  1  0
 17 30  1  0
 30 31  2  0
 11 32  1  0
  8  2  1  0
 31 14  1  0
 32  6  1  0
  1 33  1  0
  1 34  1  0
  8 35  1  0
  9 36  1  0
 10 37  1  0
 10 38  1  0
 11 39  1  1
 12 40  1  0
 12 41  1  0
 13 42  1  0
 15 43  1  0
 16 44  1  0
 20 45  1  0
 21 46  1  6
 22 47  1  0
 22 48  1  0
 23 49  1  0
 23 50  1  0
 26 51  1  0
 29 52  1  0
 30 53  1  0
 31 54  1  0
 32 55  1  0
M  END
$$$$

     RDKit          3D

 55 57  0  0  0  0  0  0  0  0999 V2000
    3.9505    3.7689    3.1601 N   0  0  0  0  0  0  0  0  0  0  0  0
    3.8567    2.7586    2.1669 C   0  0  0  0  0  0  0  0  0  0  0  0
    2.7973    1.9194    2.1235 N   0  0  0  0  0  0  0  0  0  0  0  0
    2.6565    0.9413    1.2020 C   0  0  0  0  0  0  0  0  0  0  0  0
    1.6565    0.1759    1.1911 O   0  0  0  0  0  0  0  0  0  0  0  0
    3.6235    0.7655    0.2458 C   0  0  0  0  0  0  0  0  0  0  0  0
    4.7080    1.6281    0.2946 C   0  0  0  0  0  0  0  0  0  0  0  0
    4.8126    2.5899    1.2278 N   0  0  0  0  0  0  0  0  0  0  0  0
    5.7012    1.4197   -0.7024 N   0  0  0  0  0  0  0  0  0  0  0  0
    5.3402    0.8577   -1.9737 C   0  0  0  0  0  0  0  0  0  0  0  0
    4.2859   -0.2026   -1.9262 C   0  0  2  0  0  0  0  0  0  0  0  0
    3.4073   -0.0698   -3.1343 C   0  0  0  0  0  0  0  0  0  0  0  0
    2.3286   -1.0111   -3.2328 N   0  0  0  0  0  0  0  0  0  0  0  0
    1.1003   -0.9486   -2.5405 C   0  0  0  0  0  0  0  0  0  0  0  0
    0.7094    0.2025   -1.9008 C   0  0  0  0  0  0  0  0  0  0  0  0
   -0.4888    0.2806   -1.2225 C   0  0  0  0  0  0  0  0  0  0  0  0
   -1.3499   -0.7987   -1.1569 C   0  0  0  0  0  0  0  0  0  0  0  0
   -2.6193   -0.6821   -0.4270 C   0  0  0  0  0  0  0  0  0  0  0  0
   -2.8845    0.4281    0.0979 O   0  0  0  0  0  0  0  0  0  0  0  0
   -3.5345   -1.7352   -0.2907 N   0  0  0  0  0  0  0  0  0  0  0  0
   -4.7843   -1.5223    0.4602 C   0  0  1  0  0  0  0  0  0  0  0  0
   -4.4970   -1.3023    1.9106 C   0  0  0  0  0  0  0  0  0  0  0  0
   -5.7105   -1.0812    2.7567 C   0  0  0  0  0  0  0  0  0  0  0  0
   -5.3463   -0.8898    4.1931 C   0  0  0  0  0  0  0  0  0  0  0  0
   -4.1713   -0.9142    4.6167 O   0  0  0  0  0  0  0  0  0  0  0  0
   -6.3589   -0.6759    5.0938 O   0  0  0  0  0  0  0  0  0  0  0  0
   -5.5460   -0.4562   -0.2048 C   0  0  0  0  0  0  0  0  0  0  0  0
   -5.1222    0.1450   -1.2233 O   0  0  0  0  0  0  0  0  0  0  0  0
   -6.7798   -0.0756    0.2799 O   0  0  0  0  0  0  0  0  0  0  0  0
   -0.9544   -1.9483   -1.7982 C   0  0  0  0  0  0  0  0  0  0  0  0
    0.2502   -2.0225   -2.4786 C   0  0  0  0  0  0  0  0  0  0  0  0
    3.5158   -0.2467   -0.7335 N   0  0  0  0  0  0  0  0  0  0  0  0
    3.0847    4.0645    3.6425 H   0  0  0  0  0  0  0  0  0  0  0  0
    4.8453    4.2176    3.4179 H   0  0  0  0  0  0  0  0  0  0  0  0
    5.6511    3.2147    1.2227 H   0  0  0  0  0  0  0  0  0  0  0  0
    6.6983    1.6944   -0.4721 H   0  0  0  0  0  0  0  0  0  0  0  0
    4.9733    1.7017   -2.6288 H   0  0  0  0  0  0  0  0  0  0  0  0
    6.2713    0.4493   -2.4229 H   0  0  0  0  0  0  0  0  0  0  0  0
    4.8467   -1.1923   -1.9595 H   0  0  0  0  0  0  0  0  0  0  0  0
    3.0438    0.9909   -3.2519 H   0  0  0  0  0  0  0  0  0  0  0  0
    4.0738   -0.2222   -4.0187 H   0  0  0  0  0  0  0  0  0  0  0  0
    2.4202   -1.8599   -3.8848 H   0  0  0  0  0  0  0  0  0  0  0  0
    1.3581    1.0702   -1.9302 H   0  0  0  0  0  0  0  0  0  0  0  0
   -0.7806    1.2107   -0.7188 H   0  0  0  0  0  0  0  0  0  0  0  0
   -3.3276   -2.6571   -0.7184 H   0  0  0  0  0  0  0  0  0  0  0  0
   -5.3647   -2.4926    0.3942 H   0  0  0  0  0  0  0  0  0  0  0  0
   -3.9213   -2.1692    2.3510 H   0  0  0  0  0  0  0  0  0  0  0  0
   -3.7857   -0.4393    2.0548 H   0  0  0  0  0  0  0  0  0  0  0  0
   -6.3504   -1.9830    2.6935 H   0  0  0  0  0  0  0  0  0  0  0  0
   -6.2594   -0.1404    2.4875 H   0  0  0  0  0  0  0  0  0  0  0  0
   -6.2478   -0.1625    5.9731 H   0  0  0  0  0  0  0  0  0  0  0  0
   -7.5165    0.2725   -0.3277 H   0  0  0  0  0  0  0  0  0  0  0  0
   -1.6154   -2.8229   -1.7647 H   0  0  0  0  0  0  0  0  0  0  0  0
    0.4780   -2.9623   -2.9511 H   0  0  0  0  0  0  0  0  0  0  0  0
    2.8722   -1.0809   -0.6136 H   0  0  0  0  0  0  0  0  0  0  0  0
  1  2  1  0
  2  3  2  0
  3  4  1  0
  4  5  2  0
  4  6  1  0
  6  7  2  0
  7  8  1  0
  7  9  1  0
  9 10  1  0
 10 11  1  0
 11 12  1  0
 12 13  1  0
 13 14  1  0
 14 15  2  0
 15 16  1  0
 16 17  2  0
 17 18  1  0
 18 19  2  0
 18 20  1  0
 20 21  1  0
 21 22  1  0
 22 23  1  0
 23 24  1  0
 24 25  2  0
 24 26  1  0
 21 27  1  0
 27 28  2  0
 27 29  1  0
 17 30  1  0
 30 31  2  0
 11 32  1  0
  8  2  1  0
 31 14  1  0
 32  6  1  0
  1 33  1  0
  1 34  1  0
  8 35  1  0
  9 36  1  0
 10 37  1  0
 10 38  1  0
 11 39  1  6
 12 40  1  0
 12 41  1  0
 13 42  1  0
 15 43  1  0
 16 44  1  0
 20 45  1  0
 21 46  1  1
 22 47  1  0
 22 48  1  0
 23 49  1  0
 23 50  1  0
 26 51  1  0
 29 52  1  0
 30 53  1  0
 31 54  1  0
 32 55  1  0
M  END
$$$$

     RDKit          3D

 55 57  0  0  0  0  0  0  0  0999 V2000
    9.7027    0.8476   -0.2551 N   0  0  0  0  0  0  0  0  0  0  0  0
    8.4302    0.2821    0.0228 C   0  0  0  0  0  0  0  0  0  0  0  0
    8.2254   -0.5326    1.0531 N   0  0  0  0  0  0  0  0  0  0  0  0
    7.0069   -1.0710    1.3146 C   0  0  0  0  0  0  0  0  0  0  0  0
    6.8115   -1.8453    2.2934 O   0  0  0  0  0  0  0  0  0  0  0  0
    5.9588   -0.7675    0.4954 C   0  0  0  0  0  0  0  0  0  0  0  0
    6.1583    0.0772   -0.5777 C   0  0  0  0  0  0  0  0  0  0  0  0
    7.3953    0.5787   -0.7818 N   0  0  0  0  0  0  0  0  0  0  0  0
    5.0671    0.3952   -1.4336 N   0  0  0  0  0  0  0  0  0  0  0  0
    3.8410   -0.3632   -1.4124 C   0  0  0  0  0  0  0  0  0  0  0  0
    3.5179   -0.6909    0.0352 C   0  0  2  0  0  0  0  0  0  0  0  0
    3.2171    0.6109    0.7309 C   0  0  0  0  0  0  0  0  0  0  0  0
    2.1142    1.3394    0.1894 N   0  0  0  0  0  0  0  0  0  0  0  0
    0.8027    0.8542    0.3028 C   0  0  0  0  0  0  0  0  0  0  0  0
   -0.2401    1.4262   -0.4361 C   0  0  0  0  0  0  0  0  0  0  0  0
   -1.5408    0.9827   -0.3348 C   0  0  0  0  0  0  0  0  0  0  0  0
   -1.8675   -0.0529    0.5079 C   0  0  0  0  0  0  0  0  0  0  0  0
   -3.2289   -0.5700    0.6600 C   0  0  0  0  0  0  0  0  0  0  0  0
   -3.4382   -1.5496    1.4428 O   0  0  0  0  0  0  0  0  0  0  0  0
   -4.3417   -0.0526   -0.0089 N   0  0  0  0  0  0  0  0  0  0  0  0
   -5.7063   -0.6252    0.1892 C   0  0  1  0  0  0  0  0  0  0  0  0
   -6.6174    0.4213    0.6869 C   0  0  0  0  0  0  0  0  0  0  0  0
   -8.0096   -0.0464    0.9121 C   0  0  0  0  0  0  0  0  0  0  0  0
   -8.7731   -0.4634   -0.2763 C   0  0  0  0  0  0  0  0  0  0  0  0
   -9.6457   -1.3941   -0.2316 O   0  0  0  0  0  0  0  0  0  0  0  0
   -8.5951    0.1358   -1.5278 O   0  0  0  0  0  0  0  0  0  0  0  0
   -6.1292   -1.2257   -1.0730 C   0  0  0  0  0  0  0  0  0  0  0  0
   -5.6964   -0.6685   -2.1433 O   0  0  0  0  0  0  0  0  0  0  0  0
   -6.9523   -2.3482   -1.1977 O   0  0  0  0  0  0  0  0  0  0  0  0
   -0.8429   -0.6137    1.2333 C   0  0  0  0  0  0  0  0  0  0  0  0
    0.4624   -0.1765    1.1389 C   0  0  0  0  0  0  0  0  0  0  0  0
    4.6589   -1.2893    0.7032 N   0  0  0  0  0  0  0  0  0  0  0  0
   10.4486    0.8709    0.4723 H   0  0  0  0  0  0  0  0  0  0  0  0
    9.9309    1.2502   -1.1752 H   0  0  0  0  0  0  0  0  0  0  0  0
    7.5249    1.2216   -1.6070 H   0  0  0  0  0  0  0  0  0  0  0  0
    5.2030    1.2151   -2.0846 H   0  0  0  0  0  0  0  0  0  0  0  0
    2.9993    0.2865   -1.7676 H   0  0  0  0  0  0  0  0  0  0  0  0
    3.9413   -1.2867   -2.0039 H   0  0  0  0  0  0  0  0  0  0  0  0
    2.6582   -1.3733    0.0383 H   0  0  0  0  0  0  0  0  0  0  0  0
    3.0827    0.3615    1.8052 H   0  0  0  0  0  0  0  0  0  0  0  0
    4.1372    1.2290    0.6631 H   0  0  0  0  0  0  0  0  0  0  0  0
    2.2792    2.2498   -0.3011 H   0  0  0  0  0  0  0  0  0  0  0  0
   -0.0029    2.2450   -1.1068 H   0  0  0  0  0  0  0  0  0  0  0  0
   -2.3483    1.4450   -0.9242 H   0  0  0  0  0  0  0  0  0  0  0  0
   -4.2306    0.7455   -0.6590 H   0  0  0  0  0  0  0  0  0  0  0  0
   -5.6123   -1.4706    0.9322 H   0  0  0  0  0  0  0  0  0  0  0  0
   -6.6587    1.2645   -0.0601 H   0  0  0  0  0  0  0  0  0  0  0  0
   -6.2727    0.8792    1.6543 H   0  0  0  0  0  0  0  0  0  0  0  0
   -8.6027    0.7003    1.5175 H   0  0  0  0  0  0  0  0  0  0  0  0
   -7.9845   -0.9440    1.6155 H   0  0  0  0  0  0  0  0  0  0  0  0
   -9.4173    0.2616   -2.1186 H   0  0  0  0  0  0  0  0  0  0  0  0
   -7.4702   -2.3942   -2.0871 H   0  0  0  0  0  0  0  0  0  0  0  0
   -1.0874   -1.4456    1.9145 H   0  0  0  0  0  0  0  0  0  0  0  0
    1.2328   -0.6370    1.7343 H   0  0  0  0  0  0  0  0  0  0  0  0
    4.5036   -2.0949    1.3263 H   0  0  0  0  0  0  0  0  0  0  0  0
  1  2  1  0
  2  3  2  0
  3  4  1  0
  4  5  2  0
  4  6  1  0
  6  7  2  0
  7  8  1  0
  7  9  1  0
  9 10  1  0
 10 11  1  0
 11 12  1  0
 12 13  1  0
 13 14  1  0
 14 15  2  0
 15 16  1  0
 16 17  2  0
 17 18  1  0
 18 19  2  0
 18 20  1  0
 20 21  1  0
 21 22  1  0
 22 23  1  0
 23 24  1  0
 24 25  2  0
 24 26  1  0
 21 27  1  0
 27 28  2  0
 27 29  1  0
 17 30  1  0
 30 31  2  0
 11 32  1  0
  8  2  1  0
 31 14  1  0
 32  6  1  0
  1 33  1  0
  1 34  1  0
  8 35  1  0
  9 36  1  0
 10 37  1  0
 10 38  1  0
 11 39  1  6
 12 40  1  0
 12 41  1  0
 13 42  1  0
 15 43  1  0
 16 44  1  0
 20 45  1  0
 21 46  1  1
 22 47  1  0
 22 48  1  0
 23 49  1  0
 23 50  1  0
 26 51  1  0
 29 52  1  0
 30 53  1  0
 31 54  1  0
 32 55  1  0
M  END
$$$$

     RDKit          3D

 55 57  0  0  0  0  0  0  0  0999 V2000
   -8.1334    2.4384   -2.0419 N   0  0  0  0  0  0  0  0  0  0  0  0
   -7.2715    1.3755   -1.6952 C   0  0  0  0  0  0  0  0  0  0  0  0
   -7.5779    0.0838   -1.8995 N   0  0  0  0  0  0  0  0  0  0  0  0
   -6.7602   -0.9274   -1.5651 C   0  0  0  0  0  0  0  0  0  0  0  0
   -7.0660   -2.1182   -1.7646 O   0  0  0  0  0  0  0  0  0  0  0  0
   -5.5485   -0.6479   -0.9859 C   0  0  0  0  0  0  0  0  0  0  0  0
   -5.1975    0.6699   -0.7610 C   0  0  0  0  0  0  0  0  0  0  0  0
   -6.0773    1.6340   -1.1251 N   0  0  0  0  0  0  0  0  0  0  0  0
   -3.9459    0.9614   -0.1688 N   0  0  0  0  0  0  0  0  0  0  0  0
   -2.9272   -0.0890   -0.0199 C   0  0  0  0  0  0  0  0  0  0  0  0
   -3.6216   -1.3399    0.4034 C   0  0  2  0  0  0  0  0  0  0  0  0
   -2.7645   -2.5239    0.6845 C   0  0  0  0  0  0  0  0  0  0  0  0
   -1.8104   -2.2986    1.7192 N   0  0  0  0  0  0  0  0  0  0  0  0
   -0.6137   -1.5327    1.5606 C   0  0  0  0  0  0  0  0  0  0  0  0
   -0.0383   -1.3005    0.3049 C   0  0  0  0  0  0  0  0  0  0  0  0
    1.1042   -0.5375    0.1935 C   0  0  0  0  0  0  0  0  0  0  0  0
    1.7056    0.0142    1.3161 C   0  0  0  0  0  0  0  0  0  0  0  0
    2.9103    0.8229    1.2219 C   0  0  0  0  0  0  0  0  0  0  0  0
    3.1799    1.5985    2.2164 O   0  0  0  0  0  0  0  0  0  0  0  0
    3.8112    0.8315    0.1346 N   0  0  0  0  0  0  0  0  0  0  0  0
    5.0001    1.6721    0.1095 C   0  0  1  0  0  0  0  0  0  0  0  0
    6.1844    0.7356    0.3361 C   0  0  0  0  0  0  0  0  0  0  0  0
    6.3083   -0.3183   -0.7323 C   0  0  0  0  0  0  0  0  0  0  0  0
    7.4661   -1.1633   -0.3847 C   0  0  0  0  0  0  0  0  0  0  0  0
    7.5584   -1.6673    0.7774 O   0  0  0  0  0  0  0  0  0  0  0  0
    8.4673   -1.4120   -1.3344 O   0  0  0  0  0  0  0  0  0  0  0  0
    5.1049    2.4619   -1.1156 C   0  0  0  0  0  0  0  0  0  0  0  0
    4.1806    2.3312   -1.9989 O   0  0  0  0  0  0  0  0  0  0  0  0
    6.0991    3.3472   -1.4382 O   0  0  0  0  0  0  0  0  0  0  0  0
    1.1070   -0.2391    2.5310 C   0  0  0  0  0  0  0  0  0  0  0  0
   -0.0339   -0.9961    2.6872 C   0  0  0  0  0  0  0  0  0  0  0  0
   -4.6354   -1.6606   -0.5917 N   0  0  0  0  0  0  0  0  0  0  0  0
   -8.0342    2.9006   -2.9584 H   0  0  0  0  0  0  0  0  0  0  0  0
   -8.8608    2.7564   -1.3808 H   0  0  0  0  0  0  0  0  0  0  0  0
   -5.7609    2.6302   -0.9286 H   0  0  0  0  0  0  0  0  0  0  0  0
   -3.7884    1.9410    0.1487 H   0  0  0  0  0  0  0  0  0  0  0  0
   -2.2872    0.2968    0.8126 H   0  0  0  0  0  0  0  0  0  0  0  0
   -2.3826   -0.2368   -0.9694 H   0  0  0  0  0  0  0  0  0  0  0  0
   -4.1575   -1.0951    1.3687 H   0  0  0  0  0  0  0  0  0  0  0  0
   -2.2792   -2.9370   -0.2341 H   0  0  0  0  0  0  0  0  0  0  0  0
   -3.4629   -3.3449    1.0078 H   0  0  0  0  0  0  0  0  0  0  0  0
   -1.9971   -2.7258    2.6714 H   0  0  0  0  0  0  0  0  0  0  0  0
   -0.5360   -1.7490   -0.5713 H   0  0  0  0  0  0  0  0  0  0  0  0
    1.5585   -0.3494   -0.7705 H   0  0  0  0  0  0  0  0  0  0  0  0
    3.6099    0.2108   -0.6732 H   0  0  0  0  0  0  0  0  0  0  0  0
    5.0218    2.3633    0.9901 H   0  0  0  0  0  0  0  0  0  0  0  0
    6.0499    0.3029    1.3552 H   0  0  0  0  0  0  0  0  0  0  0  0
    7.1250    1.3586    0.4152 H   0  0  0  0  0  0  0  0  0  0  0  0
    5.3803   -0.9453   -0.6479 H   0  0  0  0  0  0  0  0  0  0  0  0
    6.3763    0.1276   -1.7297 H   0  0  0  0  0  0  0  0  0  0  0  0
    9.4333   -1.5133   -1.0361 H   0  0  0  0  0  0  0  0  0  0  0  0
    6.4065    3.3729   -2.4214 H   0  0  0  0  0  0  0  0  0  0  0  0
    1.5924    0.2033    3.4010 H   0  0  0  0  0  0  0  0  0  0  0  0
   -0.4766   -1.1693    3.6823 H   0  0  0  0  0  0  0  0  0  0  0  0
   -4.6945   -2.6045   -1.0064 H   0  0  0  0  0  0  0  0  0  0  0  0
  1  2  1  0
  2  3  2  0
  3  4  1  0
  4  5  2  0
  4  6  1  0
  6  7  2  0
  7  8  1  0
  7  9  1  0
  9 10  1  0
 10 11  1  0
 11 12  1  0
 12 13  1  0
 13 14  1  0
 14 15  2  0
 15 16  1  0
 16 17  2  0
 17 18  1  0
 18 19  2  0
 18 20  1  0
 20 21  1  0
 21 22  1  0
 22 23  1  0
 23 24  1  0
 24 25  2  0
 24 26  1  0
 21 27  1  0
 27 28  2  0
 27 29  1  0
 17 30  1  0
 30 31  2  0
 11 32  1  0
  8  2  1  0
 31 14  1  0
 32  6  1  0
  1 33  1  0
  1 34  1  0
  8 35  1  0
  9 36  1  0
 10 37  1  0
 10 38  1  0
 11 39  1  1
 12 40  1  0
 12 41  1  0
 13 42  1  0
 15 43  1  0
 16 44  1  0
 20 45  1  0
 21 46  1  1
 22 47  1  0
 22 48  1  0
 23 49  1  0
 23 50  1  0
 26 51  1  0
 29 52  1  0
 30 53  1  0
 31 54  1  0
 32 55  1  0
M  END
$$$$

     RDKit          3D

 55 57  0  0  0  0  0  0  0  0999 V2000
    9.3086   -1.8351   -0.6994 N   0  0  0  0  0  0  0  0  0  0  0  0
    8.1055   -1.0902   -0.7457 C   0  0  0  0  0  0  0  0  0  0  0  0
    7.4959   -0.8842   -1.9347 N   0  0  0  0  0  0  0  0  0  0  0  0
    6.3401   -0.1760   -2.0154 C   0  0  0  0  0  0  0  0  0  0  0  0
    5.7755    0.0162   -3.1117 O   0  0  0  0  0  0  0  0  0  0  0  0
    5.7643    0.3492   -0.8768 C   0  0  0  0  0  0  0  0  0  0  0  0
    6.3996    0.1295    0.3320 C   0  0  0  0  0  0  0  0  0  0  0  0
    7.5299   -0.5734    0.3396 N   0  0  0  0  0  0  0  0  0  0  0  0
    5.7924    0.6744    1.4820 N   0  0  0  0  0  0  0  0  0  0  0  0
    4.9943    1.8736    1.3994 C   0  0  0  0  0  0  0  0  0  0  0  0
    4.0462    1.8448    0.2386 C   0  0  2  0  0  0  0  0  0  0  0  0
    2.7233    1.2426    0.7000 C   0  0  0  0  0  0  0  0  0  0  0  0
    1.7662    1.1884   -0.3727 N   0  0  0  0  0  0  0  0  0  0  0  0
    0.4727    0.6620   -0.1668 C   0  0  0  0  0  0  0  0  0  0  0  0
    0.1633    0.1289    1.0856 C   0  0  0  0  0  0  0  0  0  0  0  0
   -1.0868   -0.3723    1.2947 C   0  0  0  0  0  0  0  0  0  0  0  0
   -2.0928   -0.3964    0.3500 C   0  0  0  0  0  0  0  0  0  0  0  0
   -3.3981   -0.9455    0.6660 C   0  0  0  0  0  0  0  0  0  0  0  0
   -3.5369   -1.4925    1.8072 O   0  0  0  0  0  0  0  0  0  0  0  0
   -4.5138   -0.9085   -0.2070 N   0  0  0  0  0  0  0  0  0  0  0  0
   -5.8049   -1.4840    0.1973 C   0  0  1  0  0  0  0  0  0  0  0  0
   -6.8389   -0.4023    0.3625 C   0  0  0  0  0  0  0  0  0  0  0  0
   -7.1172    0.3951   -0.8678 C   0  0  0  0  0  0  0  0  0  0  0  0
   -8.1330    1.4142   -0.5452 C   0  0  0  0  0  0  0  0  0  0  0  0
   -7.9382    2.2058    0.3990 O   0  0  0  0  0  0  0  0  0  0  0  0
   -9.3000    1.5005   -1.2770 O   0  0  0  0  0  0  0  0  0  0  0  0
   -6.1816   -2.5209   -0.7583 C   0  0  0  0  0  0  0  0  0  0  0  0
   -5.4419   -2.8261   -1.7668 O   0  0  0  0  0  0  0  0  0  0  0  0
   -7.3521   -3.2603   -0.6696 O   0  0  0  0  0  0  0  0  0  0  0  0
   -1.7750    0.1332   -0.8845 C   0  0  0  0  0  0  0  0  0  0  0  0
   -0.5062    0.6528   -1.1300 C   0  0  0  0  0  0  0  0  0  0  0  0
    4.5586    1.1018   -0.8713 N   0  0  0  0  0  0  0  0  0  0  0  0
    9.2997   -2.8484   -0.4808 H   0  0  0  0  0  0  0  0  0  0  0  0
   10.2171   -1.3676   -0.8862 H   0  0  0  0  0  0  0  0  0  0  0  0
    7.9842   -0.7197    1.2783 H   0  0  0  0  0  0  0  0  0  0  0  0
    5.9540    0.1630    2.3989 H   0  0  0  0  0  0  0  0  0  0  0  0
    4.4249    2.0422    2.3444 H   0  0  0  0  0  0  0  0  0  0  0  0
    5.6878    2.7478    1.3317 H   0  0  0  0  0  0  0  0  0  0  0  0
    3.8908    2.8866   -0.1170 H   0  0  0  0  0  0  0  0  0  0  0  0
    2.3156    1.8603    1.5374 H   0  0  0  0  0  0  0  0  0  0  0  0
    2.9774    0.2390    1.0942 H   0  0  0  0  0  0  0  0  0  0  0  0
    2.0300    1.5390   -1.3072 H   0  0  0  0  0  0  0  0  0  0  0  0
    0.9456    0.1429    1.8381 H   0  0  0  0  0  0  0  0  0  0  0  0
   -1.3105   -0.7867    2.2793 H   0  0  0  0  0  0  0  0  0  0  0  0
   -4.3793   -0.4668   -1.1319 H   0  0  0  0  0  0  0  0  0  0  0  0
   -5.6944   -1.9527    1.2128 H   0  0  0  0  0  0  0  0  0  0  0  0
   -7.8096   -0.9327    0.6161 H   0  0  0  0  0  0  0  0  0  0  0  0
   -6.6202    0.2397    1.2325 H   0  0  0  0  0  0  0  0  0  0  0  0
   -6.1985    0.9714   -1.1721 H   0  0  0  0  0  0  0  0  0  0  0  0
   -7.4228   -0.2714   -1.6888 H   0  0  0  0  0  0  0  0  0  0  0  0
  -10.1594    1.8873   -0.8776 H   0  0  0  0  0  0  0  0  0  0  0  0
   -7.5441   -4.0490   -1.2765 H   0  0  0  0  0  0  0  0  0  0  0  0
   -2.5043    0.1470   -1.6617 H   0  0  0  0  0  0  0  0  0  0  0  0
   -0.2858    1.0630   -2.1052 H   0  0  0  0  0  0  0  0  0  0  0  0
    3.9829    1.1202   -1.7574 H   0  0  0  0  0  0  0  0  0  0  0  0
  1  2  1  0
  2  3  2  0
  3  4  1  0
  4  5  2  0
  4  6  1  0
  6  7  2  0
  7  8  1  0
  7  9  1  0
  9 10  1  0
 10 11  1  0
 11 12  1  0
 12 13  1  0
 13 14  1  0
 14 15  2  0
 15 16  1  0
 16 17  2  0
 17 18  1  0
 18 19  2  0
 18 20  1  0
 20 21  1  0
 21 22  1  0
 22 23  1  0
 23 24  1  0
 24 25  2  0
 24 26  1  0
 21 27  1  0
 27 28  2  0
 27 29  1  0
 17 30  1  0
 30 31  2  0
 11 32  1  0
  8  2  1  0
 31 14  1  0
 32  6  1  0
  1 33  1  0
  1 34  1  0
  8 35  1  0
  9 36  1  0
 10 37  1  0
 10 38  1  0
 11 39  1  6
 12 40  1  0
 12 41  1  0
 13 42  1  0
 15 43  1  0
 16 44  1  0
 20 45  1  0
 21 46  1  1
 22 47  1  0
 22 48  1  0
 23 49  1  0
 23 50  1  0
 26 51  1  0
 29 52  1  0
 30 53  1  0
 31 54  1  0
 32 55  1  0
M  END
$$$$

     RDKit          3D

 55 57  0  0  0  0  0  0  0  0999 V2000
    9.2267    0.2769    0.8895 N   0  0  0  0  0  0  0  0  0  0  0  0
    7.8551   -0.0958    0.8162 C   0  0  0  0  0  0  0  0  0  0  0  0
    7.1567   -0.4938    1.8959 N   0  0  0  0  0  0  0  0  0  0  0  0
    5.8627   -0.8452    1.8245 C   0  0  0  0  0  0  0  0  0  0  0  0
    5.1839   -1.2200    2.8092 O   0  0  0  0  0  0  0  0  0  0  0  0
    5.2291   -0.7945    0.5945 C   0  0  0  0  0  0  0  0  0  0  0  0
    5.9269   -0.3874   -0.5348 C   0  0  0  0  0  0  0  0  0  0  0  0
    7.2159   -0.0556   -0.3662 N   0  0  0  0  0  0  0  0  0  0  0  0
    5.2604   -0.3401   -1.7954 N   0  0  0  0  0  0  0  0  0  0  0  0
    3.9069   -0.7774   -1.9852 C   0  0  0  0  0  0  0  0  0  0  0  0
    3.1414   -0.5760   -0.6949 C   0  0  2  0  0  0  0  0  0  0  0  0
    3.1095    0.9245   -0.4221 C   0  0  0  0  0  0  0  0  0  0  0  0
    2.3776    1.1242    0.8036 N   0  0  0  0  0  0  0  0  0  0  0  0
    0.9898    0.8756    0.8423 C   0  0  0  0  0  0  0  0  0  0  0  0
    0.2324    0.7336   -0.2918 C   0  0  0  0  0  0  0  0  0  0  0  0
   -1.1390    0.4678   -0.1869 C   0  0  0  0  0  0  0  0  0  0  0  0
   -1.7701    0.3411    1.0355 C   0  0  0  0  0  0  0  0  0  0  0  0
   -3.1950    0.0660    1.1598 C   0  0  0  0  0  0  0  0  0  0  0  0
   -3.6694   -0.1433    2.3037 O   0  0  0  0  0  0  0  0  0  0  0  0
   -4.0826    0.0190    0.0729 N   0  0  0  0  0  0  0  0  0  0  0  0
   -5.5179   -0.2593    0.1917 C   0  0  1  0  0  0  0  0  0  0  0  0
   -6.3019    0.9408   -0.1377 C   0  0  0  0  0  0  0  0  0  0  0  0
   -7.7657    0.8825   -0.1150 C   0  0  0  0  0  0  0  0  0  0  0  0
   -8.3640    0.0165   -1.1365 C   0  0  0  0  0  0  0  0  0  0  0  0
   -9.4520   -0.5811   -0.9373 O   0  0  0  0  0  0  0  0  0  0  0  0
   -7.7435   -0.1731   -2.3801 O   0  0  0  0  0  0  0  0  0  0  0  0
   -5.8024   -1.5356   -0.4394 C   0  0  0  0  0  0  0  0  0  0  0  0
   -4.8781   -2.1212   -1.1154 O   0  0  0  0  0  0  0  0  0  0  0  0
   -6.9837   -2.2534   -0.4119 O   0  0  0  0  0  0  0  0  0  0  0  0
   -0.9741    0.4912    2.1519 C   0  0  0  0  0  0  0  0  0  0  0  0
    0.3838    0.7542    2.0792 C   0  0  0  0  0  0  0  0  0  0  0  0
    3.8676   -1.1493    0.4338 N   0  0  0  0  0  0  0  0  0  0  0  0
    9.5721    0.9903    0.2014 H   0  0  0  0  0  0  0  0  0  0  0  0
    9.9075   -0.0994    1.5661 H   0  0  0  0  0  0  0  0  0  0  0  0
    7.7351    0.2524   -1.2334 H   0  0  0  0  0  0  0  0  0  0  0  0
    5.7757    0.0315   -2.6355 H   0  0  0  0  0  0  0  0  0  0  0  0
    3.3820   -0.1816   -2.7664 H   0  0  0  0  0  0  0  0  0  0  0  0
    3.8409   -1.8411   -2.3113 H   0  0  0  0  0  0  0  0  0  0  0  0
    2.1096   -0.9353   -0.7327 H   0  0  0  0  0  0  0  0  0  0  0  0
    4.1492    1.3169   -0.3575 H   0  0  0  0  0  0  0  0  0  0  0  0
    2.6472    1.4486   -1.2838 H   0  0  0  0  0  0  0  0  0  0  0  0
    2.8983    1.4521    1.6428 H   0  0  0  0  0  0  0  0  0  0  0  0
    0.6876    0.8370   -1.2650 H   0  0  0  0  0  0  0  0  0  0  0  0
   -1.7029    0.3616   -1.0984 H   0  0  0  0  0  0  0  0  0  0  0  0
   -3.7193    0.1902   -0.8878 H   0  0  0  0  0  0  0  0  0  0  0  0
   -5.6421   -0.4361    1.3177 H   0  0  0  0  0  0  0  0  0  0  0  0
   -6.0004    1.3360   -1.1487 H   0  0  0  0  0  0  0  0  0  0  0  0
   -6.0091    1.7247    0.6453 H   0  0  0  0  0  0  0  0  0  0  0  0
   -8.1500    1.9262   -0.3559 H   0  0  0  0  0  0  0  0  0  0  0  0
   -8.2032    0.6995    0.9004 H   0  0  0  0  0  0  0  0  0  0  0  0
   -8.3194   -0.3446   -3.1908 H   0  0  0  0  0  0  0  0  0  0  0  0
   -7.2391   -2.8777   -1.1553 H   0  0  0  0  0  0  0  0  0  0  0  0
   -1.4255    0.4006    3.1295 H   0  0  0  0  0  0  0  0  0  0  0  0
    0.9933    0.8692    2.9690 H   0  0  0  0  0  0  0  0  0  0  0  0
    3.4252   -1.7860    1.0965 H   0  0  0  0  0  0  0  0  0  0  0  0
  1  2  1  0
  2  3  2  0
  3  4  1  0
  4  5  2  0
  4  6  1  0
  6  7  2  0
  7  8  1  0
  7  9  1  0
  9 10  1  0
 10 11  1  0
 11 12  1  0
 12 13  1  0
 13 14  1  0
 14 15  2  0
 15 16  1  0
 16 17  2  0
 17 18  1  0
 18 19  2  0
 18 20  1  0
 20 21  1  0
 21 22  1  0
 22 23  1  0
 23 24  1  0
 24 25  2  0
 24 26  1  0
 21 27  1  0
 27 28  2  0
 27 29  1  0
 17 30  1  0
 30 31  2  0
 11 32  1  0
  8  2  1  0
 31 14  1  0
 32  6  1  0
  1 33  1  0
  1 34  1  0
  8 35  1  0
  9 36  1  0
 10 37  1  0
 10 38  1  0
 11 39  1  6
 12 40  1  0
 12 41  1  0
 13 42  1  0
 15 43  1  0
 16 44  1  0
 20 45  1  0
 21 46  1  1
 22 47  1  0
 22 48  1  0
 23 49  1  0
 23 50  1  0
 26 51  1  0
 29 52  1  0
 30 53  1  0
 31 54  1  0
 32 55  1  0
M  END
$$$$

     RDKit          3D

 55 57  0  0  0  0  0  0  0  0999 V2000
  -10.3846    0.1408   -0.0095 N   0  0  0  0  0  0  0  0  0  0  0  0
   -9.0146   -0.0489    0.3888 C   0  0  0  0  0  0  0  0  0  0  0  0
   -8.7258   -0.4268    1.6505 N   0  0  0  0  0  0  0  0  0  0  0  0
   -7.4298   -0.5903    1.9718 C   0  0  0  0  0  0  0  0  0  0  0  0
   -7.1037   -0.9419    3.1350 O   0  0  0  0  0  0  0  0  0  0  0  0
   -6.4036   -0.3877    1.0686 C   0  0  0  0  0  0  0  0  0  0  0  0
   -6.7303   -0.0037   -0.2072 C   0  0  0  0  0  0  0  0  0  0  0  0
   -8.0451    0.1583   -0.5195 N   0  0  0  0  0  0  0  0  0  0  0  0
   -5.7226    0.2149   -1.1629 N   0  0  0  0  0  0  0  0  0  0  0  0
   -4.3253    0.0389   -0.8282 C   0  0  0  0  0  0  0  0  0  0  0  0
   -4.0537    0.1918    0.6423 C   0  0  2  0  0  0  0  0  0  0  0  0
   -2.6557   -0.2005    0.9466 C   0  0  0  0  0  0  0  0  0  0  0  0
   -1.7561    0.6543    0.2079 N   0  0  0  0  0  0  0  0  0  0  0  0
   -0.3607    0.4652    0.3150 C   0  0  0  0  0  0  0  0  0  0  0  0
    0.5462    1.2663   -0.3799 C   0  0  0  0  0  0  0  0  0  0  0  0
    1.8864    1.0409   -0.2410 C   0  0  0  0  0  0  0  0  0  0  0  0
    2.3560    0.0506    0.5618 C   0  0  0  0  0  0  0  0  0  0  0  0
    3.7616   -0.2181    0.7342 C   0  0  0  0  0  0  0  0  0  0  0  0
    4.1296   -1.1429    1.4945 O   0  0  0  0  0  0  0  0  0  0  0  0
    4.7218    0.5557    0.0504 N   0  0  0  0  0  0  0  0  0  0  0  0
    6.1469    0.2578    0.2463 C   0  0  1  0  0  0  0  0  0  0  0  0
    6.6633   -0.1973   -1.0797 C   0  0  0  0  0  0  0  0  0  0  0  0
    8.1130   -0.5564   -1.1047 C   0  0  0  0  0  0  0  0  0  0  0  0
    8.4805   -0.9877   -2.4718 C   0  0  0  0  0  0  0  0  0  0  0  0
    9.6541   -1.3419   -2.7459 O   0  0  0  0  0  0  0  0  0  0  0  0
    7.5433   -1.0132   -3.4861 O   0  0  0  0  0  0  0  0  0  0  0  0
    6.8268    1.4324    0.8033 C   0  0  0  0  0  0  0  0  0  0  0  0
    6.1671    2.4772    1.0277 O   0  0  0  0  0  0  0  0  0  0  0  0
    8.1806    1.4492    1.0994 O   0  0  0  0  0  0  0  0  0  0  0  0
    1.4488   -0.7501    1.2564 C   0  0  0  0  0  0  0  0  0  0  0  0
    0.1056   -0.5417    1.1316 C   0  0  0  0  0  0  0  0  0  0  0  0
   -5.0350   -0.5619    1.4131 N   0  0  0  0  0  0  0  0  0  0  0  0
  -11.0702    0.4738    0.6834 H   0  0  0  0  0  0  0  0  0  0  0  0
  -10.6552   -0.0596   -0.9794 H   0  0  0  0  0  0  0  0  0  0  0  0
   -8.3101    0.4502   -1.4861 H   0  0  0  0  0  0  0  0  0  0  0  0
   -5.9628    0.5075   -2.1292 H   0  0  0  0  0  0  0  0  0  0  0  0
   -4.0065   -0.9971   -1.1350 H   0  0  0  0  0  0  0  0  0  0  0  0
   -3.7223    0.7671   -1.3888 H   0  0  0  0  0  0  0  0  0  0  0  0
   -4.1626    1.2804    0.9175 H   0  0  0  0  0  0  0  0  0  0  0  0
   -2.4108   -0.0481    2.0293 H   0  0  0  0  0  0  0  0  0  0  0  0
   -2.4640   -1.2793    0.7351 H   0  0  0  0  0  0  0  0  0  0  0  0
   -2.0890    1.4245   -0.4134 H   0  0  0  0  0  0  0  0  0  0  0  0
    0.1637    2.0497   -1.0147 H   0  0  0  0  0  0  0  0  0  0  0  0
    2.5538    1.6919   -0.8032 H   0  0  0  0  0  0  0  0  0  0  0  0
    4.5085    1.3290   -0.5891 H   0  0  0  0  0  0  0  0  0  0  0  0
    6.2511   -0.5954    0.9577 H   0  0  0  0  0  0  0  0  0  0  0  0
    6.4585    0.5741   -1.8645 H   0  0  0  0  0  0  0  0  0  0  0  0
    6.0845   -1.0915   -1.3772 H   0  0  0  0  0  0  0  0  0  0  0  0
    8.7182    0.3503   -0.8846 H   0  0  0  0  0  0  0  0  0  0  0  0
    8.3530   -1.3306   -0.3637 H   0  0  0  0  0  0  0  0  0  0  0  0
    7.7933   -0.8553   -4.4652 H   0  0  0  0  0  0  0  0  0  0  0  0
    8.5522    1.9788    1.8870 H   0  0  0  0  0  0  0  0  0  0  0  0
    1.8031   -1.5468    1.9031 H   0  0  0  0  0  0  0  0  0  0  0  0
   -0.5746   -1.1828    1.6862 H   0  0  0  0  0  0  0  0  0  0  0  0
   -4.7968   -1.2070    2.1857 H   0  0  0  0  0  0  0  0  0  0  0  0
  1  2  1  0
  2  3  2  0
  3  4  1  0
  4  5  2  0
  4  6  1  0
  6  7  2  0
  7  8  1  0
  7  9  1  0
  9 10  1  0
 10 11  1  0
 11 12  1  0
 12 13  1  0
 13 14  1  0
 14 15  2  0
 15 16  1  0
 16 17  2  0
 17 18  1  0
 18 19  2  0
 18 20  1  0
 20 21  1  0
 21 22  1  0
 22 23  1  0
 23 24  1  0
 24 25  2  0
 24 26  1  0
 21 27  1  0
 27 28  2  0
 27 29  1  0
 17 30  1  0
 30 31  2  0
 11 32  1  0
  8  2  1  0
 31 14  1  0
 32  6  1  0
  1 33  1  0
  1 34  1  0
  8 35  1  0
  9 36  1  0
 10 37  1  0
 10 38  1  0
 11 39  1  1
 12 40  1  0
 12 41  1  0
 13 42  1  0
 15 43  1  0
 16 44  1  0
 20 45  1  0
 21 46  1  1
 22 47  1  0
 22 48  1  0
 23 49  1  0
 23 50  1  0
 26 51  1  0
 29 52  1  0
 30 53  1  0
 31 54  1  0
 32 55  1  0
M  END
$$$$

     RDKit          3D

 55 57  0  0  0  0  0  0  0  0999 V2000
   10.0753    0.4787   -1.0668 N   0  0  0  0  0  0  0  0  0  0  0  0
    8.6429    0.4722   -1.1411 C   0  0  0  0  0  0  0  0  0  0  0  0
    7.9963    0.7214   -2.2910 N   0  0  0  0  0  0  0  0  0  0  0  0
    6.6543    0.7015   -2.2994 C   0  0  0  0  0  0  0  0  0  0  0  0
    5.9973    0.9328   -3.3715 O   0  0  0  0  0  0  0  0  0  0  0  0
    5.8856    0.4379   -1.1872 C   0  0  0  0  0  0  0  0  0  0  0  0
    6.5731    0.1847   -0.0163 C   0  0  0  0  0  0  0  0  0  0  0  0
    7.9203    0.2115   -0.0383 N   0  0  0  0  0  0  0  0  0  0  0  0
    5.8212   -0.0894    1.1437 N   0  0  0  0  0  0  0  0  0  0  0  0
    4.4002   -0.4415    1.0545 C   0  0  0  0  0  0  0  0  0  0  0  0
    3.7782    0.5549    0.0979 C   0  0  2  0  0  0  0  0  0  0  0  0
    2.3204    0.2743   -0.1433 C   0  0  0  0  0  0  0  0  0  0  0  0
    1.5427    0.3295    1.0749 N   0  0  0  0  0  0  0  0  0  0  0  0
    0.1539    0.0861    1.0024 C   0  0  0  0  0  0  0  0  0  0  0  0
   -0.6098    0.1329    2.1485 C   0  0  0  0  0  0  0  0  0  0  0  0
   -1.9644   -0.0995    2.1106 C   0  0  0  0  0  0  0  0  0  0  0  0
   -2.6308   -0.3921    0.9215 C   0  0  0  0  0  0  0  0  0  0  0  0
   -4.0620   -0.6270    0.9518 C   0  0  0  0  0  0  0  0  0  0  0  0
   -4.6936   -0.5685    2.0317 O   0  0  0  0  0  0  0  0  0  0  0  0
   -4.7788   -0.9262   -0.2260 N   0  0  0  0  0  0  0  0  0  0  0  0
   -6.2040   -1.1575   -0.1781 C   0  0  1  0  0  0  0  0  0  0  0  0
   -6.8457   -0.1838   -1.1359 C   0  0  0  0  0  0  0  0  0  0  0  0
   -6.5816    1.2539   -0.8012 C   0  0  0  0  0  0  0  0  0  0  0  0
   -7.0819    1.6785    0.5194 C   0  0  0  0  0  0  0  0  0  0  0  0
   -7.6983    0.8888    1.2661 O   0  0  0  0  0  0  0  0  0  0  0  0
   -6.8743    2.9736    0.9583 O   0  0  0  0  0  0  0  0  0  0  0  0
   -6.5058   -2.5702   -0.6018 C   0  0  0  0  0  0  0  0  0  0  0  0
   -5.5988   -3.3613   -0.9308 O   0  0  0  0  0  0  0  0  0  0  0  0
   -7.8202   -3.0104   -0.6297 O   0  0  0  0  0  0  0  0  0  0  0  0
   -1.8688   -0.4388   -0.2221 C   0  0  0  0  0  0  0  0  0  0  0  0
   -0.4892   -0.2015   -0.1794 C   0  0  0  0  0  0  0  0  0  0  0  0
    4.4677    0.4109   -1.1699 N   0  0  0  0  0  0  0  0  0  0  0  0
   10.5492   -0.4437   -1.1393 H   0  0  0  0  0  0  0  0  0  0  0  0
   10.6206    1.3717   -0.9450 H   0  0  0  0  0  0  0  0  0  0  0  0
    8.4179    0.0127    0.8780 H   0  0  0  0  0  0  0  0  0  0  0  0
    6.3095   -0.0338    2.0741 H   0  0  0  0  0  0  0  0  0  0  0  0
    4.2617   -1.4505    0.6060 H   0  0  0  0  0  0  0  0  0  0  0  0
    3.9411   -0.3676    2.0729 H   0  0  0  0  0  0  0  0  0  0  0  0
    3.9050    1.5853    0.4905 H   0  0  0  0  0  0  0  0  0  0  0  0
    1.9503    1.0356   -0.8531 H   0  0  0  0  0  0  0  0  0  0  0  0
    2.2365   -0.7201   -0.6295 H   0  0  0  0  0  0  0  0  0  0  0  0
    2.0411    0.5476    1.9602 H   0  0  0  0  0  0  0  0  0  0  0  0
   -0.1239    0.3598    3.1041 H   0  0  0  0  0  0  0  0  0  0  0  0
   -2.5103   -0.0487    3.0435 H   0  0  0  0  0  0  0  0  0  0  0  0
   -4.3198   -0.9899   -1.1500 H   0  0  0  0  0  0  0  0  0  0  0  0
   -6.5381   -1.0549    0.8606 H   0  0  0  0  0  0  0  0  0  0  0  0
   -6.5120   -0.3860   -2.1718 H   0  0  0  0  0  0  0  0  0  0  0  0
   -7.9394   -0.4050   -1.1317 H   0  0  0  0  0  0  0  0  0  0  0  0
   -5.4944    1.4816   -0.9225 H   0  0  0  0  0  0  0  0  0  0  0  0
   -7.0802    1.8838   -1.5859 H   0  0  0  0  0  0  0  0  0  0  0  0
   -7.2802    3.2982    1.8483 H   0  0  0  0  0  0  0  0  0  0  0  0
   -8.1134   -3.7210   -1.3151 H   0  0  0  0  0  0  0  0  0  0  0  0
   -2.3341   -0.6610   -1.1700 H   0  0  0  0  0  0  0  0  0  0  0  0
    0.1071   -0.2374   -1.0703 H   0  0  0  0  0  0  0  0  0  0  0  0
    3.9843    0.2868   -2.0854 H   0  0  0  0  0  0  0  0  0  0  0  0
  1  2  1  0
  2  3  2  0
  3  4  1  0
  4  5  2  0
  4  6  1  0
  6  7  2  0
  7  8  1  0
  7  9  1  0
  9 10  1  0
 10 11  1  0
 11 12  1  0
 12 13  1  0
 13 14  1  0
 14 15  2  0
 15 16  1  0
 16 17  2  0
 17 18  1  0
 18 19  2  0
 18 20  1  0
 20 21  1  0
 21 22  1  0
 22 23  1  0
 23 24  1  0
 24 25  2  0
 24 26  1  0
 21 27  1  0
 27 28  2  0
 27 29  1  0
 17 30  1  0
 30 31  2  0
 11 32  1  0
  8  2  1  0
 31 14  1  0
 32  6  1  0
  1 33  1  0
  1 34  1  0
  8 35  1  0
  9 36  1  0
 10 37  1  0
 10 38  1  0
 11 39  1  1
 12 40  1  0
 12 41  1  0
 13 42  1  0
 15 43  1  0
 16 44  1  0
 20 45  1  0
 21 46  1  1
 22 47  1  0
 22 48  1  0
 23 49  1  0
 23 50  1  0
 26 51  1  0
 29 52  1  0
 30 53  1  0
 31 54  1  0
 32 55  1  0
M  END
$$$$

     RDKit          3D

 55 57  0  0  0  0  0  0  0  0999 V2000
    8.5998   -2.5060   -1.5259 N   0  0  0  0  0  0  0  0  0  0  0  0
    7.3616   -2.2242   -0.8810 C   0  0  0  0  0  0  0  0  0  0  0  0
    6.6054   -3.2059   -0.3509 N   0  0  0  0  0  0  0  0  0  0  0  0
    5.4235   -2.9670    0.2699 C   0  0  0  0  0  0  0  0  0  0  0  0
    4.7298   -3.8826    0.7581 O   0  0  0  0  0  0  0  0  0  0  0  0
    4.9560   -1.6752    0.3757 C   0  0  0  0  0  0  0  0  0  0  0  0
    5.7219   -0.6638   -0.1629 C   0  0  0  0  0  0  0  0  0  0  0  0
    6.8835   -0.9719   -0.7647 N   0  0  0  0  0  0  0  0  0  0  0  0
    5.2356    0.6605   -0.0510 N   0  0  0  0  0  0  0  0  0  0  0  0
    3.8693    1.0209    0.2218 C   0  0  0  0  0  0  0  0  0  0  0  0
    3.0631   -0.0596    0.8909 C   0  0  2  0  0  0  0  0  0  0  0  0
    2.6809    0.5112    2.2663 C   0  0  0  0  0  0  0  0  0  0  0  0
    1.9209    1.7071    1.9987 N   0  0  0  0  0  0  0  0  0  0  0  0
    0.6359    1.6620    1.3918 C   0  0  0  0  0  0  0  0  0  0  0  0
    0.0918    2.8286    0.8333 C   0  0  0  0  0  0  0  0  0  0  0  0
   -1.1557    2.8271    0.2507 C   0  0  0  0  0  0  0  0  0  0  0  0
   -1.9278    1.6887    0.1862 C   0  0  0  0  0  0  0  0  0  0  0  0
   -3.2334    1.7615   -0.4558 C   0  0  0  0  0  0  0  0  0  0  0  0
   -3.5798    2.7713   -1.1169 O   0  0  0  0  0  0  0  0  0  0  0  0
   -4.1932    0.7133   -0.3829 N   0  0  0  0  0  0  0  0  0  0  0  0
   -5.5032    0.7678   -1.0236 C   0  0  1  0  0  0  0  0  0  0  0  0
   -5.6258   -0.2815   -2.0620 C   0  0  0  0  0  0  0  0  0  0  0  0
   -5.4545   -1.6701   -1.5526 C   0  0  0  0  0  0  0  0  0  0  0  0
   -6.4166   -2.0947   -0.5357 C   0  0  0  0  0  0  0  0  0  0  0  0
   -6.0789   -2.1409    0.6845 O   0  0  0  0  0  0  0  0  0  0  0  0
   -7.7292   -2.4675   -0.8084 O   0  0  0  0  0  0  0  0  0  0  0  0
   -6.5499    0.7927    0.0118 C   0  0  0  0  0  0  0  0  0  0  0  0
   -6.2567    0.8244    1.2275 O   0  0  0  0  0  0  0  0  0  0  0  0
   -7.8888    0.7809   -0.3444 O   0  0  0  0  0  0  0  0  0  0  0  0
   -1.3989    0.5453    0.7323 C   0  0  0  0  0  0  0  0  0  0  0  0
   -0.1505    0.5325    1.3193 C   0  0  0  0  0  0  0  0  0  0  0  0
    3.7394   -1.3162    1.0043 N   0  0  0  0  0  0  0  0  0  0  0  0
    9.1538   -3.3424   -1.2802 H   0  0  0  0  0  0  0  0  0  0  0  0
    8.9976   -1.8813   -2.2716 H   0  0  0  0  0  0  0  0  0  0  0  0
    7.4469   -0.1983   -1.1637 H   0  0  0  0  0  0  0  0  0  0  0  0
    5.9210    1.4332   -0.1770 H   0  0  0  0  0  0  0  0  0  0  0  0
    3.8404    1.9829    0.7531 H   0  0  0  0  0  0  0  0  0  0  0  0
    3.3955    1.1985   -0.7885 H   0  0  0  0  0  0  0  0  0  0  0  0
    2.1118   -0.2403    0.3601 H   0  0  0  0  0  0  0  0  0  0  0  0
    2.0318   -0.1854    2.8236 H   0  0  0  0  0  0  0  0  0  0  0  0
    3.6204    0.7462    2.7823 H   0  0  0  0  0  0  0  0  0  0  0  0
    2.3267    2.6436    2.2604 H   0  0  0  0  0  0  0  0  0  0  0  0
    0.6896    3.7245    0.8789 H   0  0  0  0  0  0  0  0  0  0  0  0
   -1.5732    3.7440   -0.1841 H   0  0  0  0  0  0  0  0  0  0  0  0
   -3.9077   -0.1450    0.1790 H   0  0  0  0  0  0  0  0  0  0  0  0
   -5.4945    1.7728   -1.5723 H   0  0  0  0  0  0  0  0  0  0  0  0
   -4.8771   -0.1217   -2.8877 H   0  0  0  0  0  0  0  0  0  0  0  0
   -6.6295   -0.2159   -2.5469 H   0  0  0  0  0  0  0  0  0  0  0  0
   -5.5588   -2.3621   -2.4432 H   0  0  0  0  0  0  0  0  0  0  0  0
   -4.4002   -1.8647   -1.2129 H   0  0  0  0  0  0  0  0  0  0  0  0
   -8.4515   -2.1483   -0.1459 H   0  0  0  0  0  0  0  0  0  0  0  0
   -8.5924    1.3170    0.1542 H   0  0  0  0  0  0  0  0  0  0  0  0
   -1.9631   -0.3658    0.7054 H   0  0  0  0  0  0  0  0  0  0  0  0
    0.2503   -0.3837    1.7587 H   0  0  0  0  0  0  0  0  0  0  0  0
    3.2871   -2.0413    1.6139 H   0  0  0  0  0  0  0  0  0  0  0  0
  1  2  1  0
  2  3  2  0
  3  4  1  0
  4  5  2  0
  4  6  1  0
  6  7  2  0
  7  8  1  0
  7  9  1  0
  9 10  1  0
 10 11  1  0
 11 12  1  0
 12 13  1  0
 13 14  1  0
 14 15  2  0
 15 16  1  0
 16 17  2  0
 17 18  1  0
 18 19  2  0
 18 20  1  0
 20 21  1  0
 21 22  1  0
 22 23  1  0
 23 24  1  0
 24 25  2  0
 24 26  1  0
 21 27  1  0
 27 28  2  0
 27 29  1  0
 17 30  1  0
 30 31  2  0
 11 32  1  0
  8  2  1  0
 31 14  1  0
 32  6  1  0
  1 33  1  0
  1 34  1  0
  8 35  1  0
  9 36  1  0
 10 37  1  0
 10 38  1  0
 11 39  1  6
 12 40  1  0
 12 41  1  0
 13 42  1  0
 15 43  1  0
 16 44  1  0
 20 45  1  0
 21 46  1  6
 22 47  1  0
 22 48  1  0
 23 49  1  0
 23 50  1  0
 26 51  1  0
 29 52  1  0
 30 53  1  0
 31 54  1  0
 32 55  1  0
M  END
$$$$

     RDKit          3D

 55 57  0  0  0  0  0  0  0  0999 V2000
    9.9136   -0.6511    1.4592 N   0  0  0  0  0  0  0  0  0  0  0  0
    8.5633   -0.7213    1.0399 C   0  0  0  0  0  0  0  0  0  0  0  0
    7.8380   -1.8660    1.1526 N   0  0  0  0  0  0  0  0  0  0  0  0
    6.5584   -1.9319    0.7568 C   0  0  0  0  0  0  0  0  0  0  0  0
    5.8391   -2.9431    0.8302 O   0  0  0  0  0  0  0  0  0  0  0  0
    5.9601   -0.7897    0.2145 C   0  0  0  0  0  0  0  0  0  0  0  0
    6.7099    0.3501    0.1115 C   0  0  0  0  0  0  0  0  0  0  0  0
    8.0057    0.3929    0.5198 N   0  0  0  0  0  0  0  0  0  0  0  0
    6.1136    1.5120   -0.4369 N   0  0  0  0  0  0  0  0  0  0  0  0
    4.6598    1.5956   -0.4256 C   0  0  0  0  0  0  0  0  0  0  0  0
    4.1264    0.3174   -1.0075 C   0  0  2  0  0  0  0  0  0  0  0  0
    2.6089    0.3269   -1.0489 C   0  0  0  0  0  0  0  0  0  0  0  0
    2.0559    0.4695    0.2790 N   0  0  0  0  0  0  0  0  0  0  0  0
    0.6568    0.4277    0.4829 C   0  0  0  0  0  0  0  0  0  0  0  0
   -0.1854    0.2431   -0.5717 C   0  0  0  0  0  0  0  0  0  0  0  0
   -1.5628    0.1865   -0.3757 C   0  0  0  0  0  0  0  0  0  0  0  0
   -2.1123    0.3143    0.8775 C   0  0  0  0  0  0  0  0  0  0  0  0
   -3.5578    0.2490    1.1092 C   0  0  0  0  0  0  0  0  0  0  0  0
   -4.0694    0.5853    2.2065 O   0  0  0  0  0  0  0  0  0  0  0  0
   -4.4232   -0.2060    0.0760 N   0  0  0  0  0  0  0  0  0  0  0  0
   -5.8791   -0.2857    0.2607 C   0  0  1  0  0  0  0  0  0  0  0  0
   -6.5573    0.7527   -0.5575 C   0  0  0  0  0  0  0  0  0  0  0  0
   -8.0256    0.8090   -0.5772 C   0  0  0  0  0  0  0  0  0  0  0  0
   -8.7025   -0.3330   -1.2350 C   0  0  0  0  0  0  0  0  0  0  0  0
   -8.0675   -1.1989   -1.9362 O   0  0  0  0  0  0  0  0  0  0  0  0
  -10.0726   -0.5310   -1.1289 O   0  0  0  0  0  0  0  0  0  0  0  0
   -6.4100   -1.6396    0.2556 C   0  0  0  0  0  0  0  0  0  0  0  0
   -5.8347   -2.6476   -0.2218 O   0  0  0  0  0  0  0  0  0  0  0  0
   -7.6726   -1.8705    0.8381 O   0  0  0  0  0  0  0  0  0  0  0  0
   -1.2295    0.5007    1.9263 C   0  0  0  0  0  0  0  0  0  0  0  0
    0.1355    0.5592    1.7500 C   0  0  0  0  0  0  0  0  0  0  0  0
    4.6142   -0.7945   -0.2181 N   0  0  0  0  0  0  0  0  0  0  0  0
   10.6962   -0.5419    0.7806 H   0  0  0  0  0  0  0  0  0  0  0  0
   10.1897   -0.7061    2.4772 H   0  0  0  0  0  0  0  0  0  0  0  0
    8.5320    1.2731    0.4236 H   0  0  0  0  0  0  0  0  0  0  0  0
    6.7116    2.2549   -0.8236 H   0  0  0  0  0  0  0  0  0  0  0  0
    4.3121    2.4451   -1.0547 H   0  0  0  0  0  0  0  0  0  0  0  0
    4.3132    1.7694    0.5961 H   0  0  0  0  0  0  0  0  0  0  0  0
    4.5351    0.1807   -2.0201 H   0  0  0  0  0  0  0  0  0  0  0  0
    2.2897    1.2513   -1.6150 H   0  0  0  0  0  0  0  0  0  0  0  0
    2.2024   -0.5556   -1.5756 H   0  0  0  0  0  0  0  0  0  0  0  0
    2.7215    0.6035    1.0799 H   0  0  0  0  0  0  0  0  0  0  0  0
    0.2435    0.1432   -1.5530 H   0  0  0  0  0  0  0  0  0  0  0  0
   -2.1527    0.0398   -1.2577 H   0  0  0  0  0  0  0  0  0  0  0  0
   -4.0401   -0.5035   -0.8541 H   0  0  0  0  0  0  0  0  0  0  0  0
   -6.0220    0.0693    1.3481 H   0  0  0  0  0  0  0  0  0  0  0  0
   -6.2160    0.7295   -1.6411 H   0  0  0  0  0  0  0  0  0  0  0  0
   -6.1922    1.7805   -0.2348 H   0  0  0  0  0  0  0  0  0  0  0  0
   -8.3432    1.7169   -1.1759 H   0  0  0  0  0  0  0  0  0  0  0  0
   -8.4840    1.0148    0.4298 H   0  0  0  0  0  0  0  0  0  0  0  0
  -10.5257   -1.0274   -1.9132 H   0  0  0  0  0  0  0  0  0  0  0  0
   -7.9802   -2.8234    1.0522 H   0  0  0  0  0  0  0  0  0  0  0  0
   -1.6179    0.6058    2.9277 H   0  0  0  0  0  0  0  0  0  0  0  0
    0.8342    0.7048    2.5631 H   0  0  0  0  0  0  0  0  0  0  0  0
    3.9961   -1.6072    0.0447 H   0  0  0  0  0  0  0  0  0  0  0  0
  1  2  1  0
  2  3  2  0
  3  4  1  0
  4  5  2  0
  4  6  1  0
  6  7  2  0
  7  8  1  0
  7  9  1  0
  9 10  1  0
 10 11  1  0
 11 12  1  0
 12 13  1  0
 13 14  1  0
 14 15  2  0
 15 16  1  0
 16 17  2  0
 17 18  1  0
 18 19  2  0
 18 20  1  0
 20 21  1  0
 21 22  1  0
 22 23  1  0
 23 24  1  0
 24 25  2  0
 24 26  1  0
 21 27  1  0
 27 28  2  0
 27 29  1  0
 17 30  1  0
 30 31  2  0
 11 32  1  0
  8  2  1  0
 31 14  1  0
 32  6  1  0
  1 33  1  0
  1 34  1  0
  8 35  1  0
  9 36  1  0
 10 37  1  0
 10 38  1  0
 11 39  1  6
 12 40  1  0
 12 41  1  0
 13 42  1  0
 15 43  1  0
 16 44  1  0
 20 45  1  0
 21 46  1  1
 22 47  1  0
 22 48  1  0
 23 49  1  0
 23 50  1  0
 26 51  1  0
 29 52  1  0
 30 53  1  0
 31 54  1  0
 32 55  1  0
M  END
$$$$

     RDKit          3D

 55 57  0  0  0  0  0  0  0  0999 V2000
  -10.1076    1.2842   -0.3817 N   0  0  0  0  0  0  0  0  0  0  0  0
   -8.7568    0.9438   -0.0860 C   0  0  0  0  0  0  0  0  0  0  0  0
   -8.3596   -0.3296    0.0912 N   0  0  0  0  0  0  0  0  0  0  0  0
   -7.0828   -0.6460    0.3703 C   0  0  0  0  0  0  0  0  0  0  0  0
   -6.6853   -1.8327    0.5408 O   0  0  0  0  0  0  0  0  0  0  0  0
   -6.1202    0.3435    0.4861 C   0  0  0  0  0  0  0  0  0  0  0  0
   -6.5508    1.6510    0.2996 C   0  0  0  0  0  0  0  0  0  0  0  0
   -7.8315    1.9218    0.0233 N   0  0  0  0  0  0  0  0  0  0  0  0
   -5.5637    2.6966    0.4159 N   0  0  0  0  0  0  0  0  0  0  0  0
   -4.1880    2.2798    0.2080 C   0  0  0  0  0  0  0  0  0  0  0  0
   -3.9184    1.1503    1.1673 C   0  0  2  0  0  0  0  0  0  0  0  0
   -2.4594    0.7649    1.2012 C   0  0  0  0  0  0  0  0  0  0  0  0
   -1.9793    0.3342   -0.0811 N   0  0  0  0  0  0  0  0  0  0  0  0
   -0.6348   -0.0755   -0.2840 C   0  0  0  0  0  0  0  0  0  0  0  0
   -0.2171   -0.4804   -1.5319 C   0  0  0  0  0  0  0  0  0  0  0  0
    1.0851   -0.8681   -1.6902 C   0  0  0  0  0  0  0  0  0  0  0  0
    2.0169   -0.8755   -0.6510 C   0  0  0  0  0  0  0  0  0  0  0  0
    3.3590   -1.3107   -0.9598 C   0  0  0  0  0  0  0  0  0  0  0  0
    3.6294   -1.7261   -2.1062 O   0  0  0  0  0  0  0  0  0  0  0  0
    4.3856   -1.2795    0.0079 N   0  0  0  0  0  0  0  0  0  0  0  0
    5.7553   -1.7295   -0.3259 C   0  0  1  0  0  0  0  0  0  0  0  0
    6.6505   -0.5457   -0.1445 C   0  0  0  0  0  0  0  0  0  0  0  0
    8.0943   -0.8182   -0.4432 C   0  0  0  0  0  0  0  0  0  0  0  0
    8.8971    0.4132   -0.2370 C   0  0  0  0  0  0  0  0  0  0  0  0
    8.3192    1.4616    0.1356 O   0  0  0  0  0  0  0  0  0  0  0  0
   10.2879    0.3996   -0.4581 O   0  0  0  0  0  0  0  0  0  0  0  0
    6.0494   -2.8387    0.6037 C   0  0  0  0  0  0  0  0  0  0  0  0
    5.2261   -3.2521    1.4875 O   0  0  0  0  0  0  0  0  0  0  0  0
    7.2662   -3.5382    0.5955 O   0  0  0  0  0  0  0  0  0  0  0  0
    1.5946   -0.4686    0.6004 C   0  0  0  0  0  0  0  0  0  0  0  0
    0.2847   -0.0768    0.7674 C   0  0  0  0  0  0  0  0  0  0  0  0
   -4.7643    0.0427    0.7796 N   0  0  0  0  0  0  0  0  0  0  0  0
  -10.4888    2.2100   -0.0279 H   0  0  0  0  0  0  0  0  0  0  0  0
  -10.6872    0.6283   -0.9311 H   0  0  0  0  0  0  0  0  0  0  0  0
   -8.1151    2.9263   -0.1106 H   0  0  0  0  0  0  0  0  0  0  0  0
   -5.8663    3.6521    0.6322 H   0  0  0  0  0  0  0  0  0  0  0  0
   -3.5258    3.1503    0.3699 H   0  0  0  0  0  0  0  0  0  0  0  0
   -4.1214    1.8856   -0.8284 H   0  0  0  0  0  0  0  0  0  0  0  0
   -4.2720    1.4835    2.1639 H   0  0  0  0  0  0  0  0  0  0  0  0
   -1.9022    1.6880    1.5099 H   0  0  0  0  0  0  0  0  0  0  0  0
   -2.2877    0.0347    2.0164 H   0  0  0  0  0  0  0  0  0  0  0  0
   -2.6399    0.3234   -0.8837 H   0  0  0  0  0  0  0  0  0  0  0  0
   -0.9309   -0.4852   -2.3723 H   0  0  0  0  0  0  0  0  0  0  0  0
    1.3970   -1.1823   -2.6735 H   0  0  0  0  0  0  0  0  0  0  0  0
    4.1836   -0.9407    0.9547 H   0  0  0  0  0  0  0  0  0  0  0  0
    5.7889   -2.0590   -1.3828 H   0  0  0  0  0  0  0  0  0  0  0  0
    6.3302    0.2807   -0.8082 H   0  0  0  0  0  0  0  0  0  0  0  0
    6.5175   -0.1731    0.9091 H   0  0  0  0  0  0  0  0  0  0  0  0
    8.5297   -1.6219    0.2066 H   0  0  0  0  0  0  0  0  0  0  0  0
    8.1914   -1.1412   -1.4882 H   0  0  0  0  0  0  0  0  0  0  0  0
   10.6906    1.2710   -0.7902 H   0  0  0  0  0  0  0  0  0  0  0  0
    7.7286   -3.7467    1.4941 H   0  0  0  0  0  0  0  0  0  0  0  0
    2.3107   -0.4743    1.4027 H   0  0  0  0  0  0  0  0  0  0  0  0
   -0.0431    0.2454    1.7660 H   0  0  0  0  0  0  0  0  0  0  0  0
   -4.4696   -0.9501    0.6969 H   0  0  0  0  0  0  0  0  0  0  0  0
  1  2  1  0
  2  3  2  0
  3  4  1  0
  4  5  2  0
  4  6  1  0
  6  7  2  0
  7  8  1  0
  7  9  1  0
  9 10  1  0
 10 11  1  0
 11 12  1  0
 12 13  1  0
 13 14  1  0
 14 15  2  0
 15 16  1  0
 16 17  2  0
 17 18  1  0
 18 19  2  0
 18 20  1  0
 20 21  1  0
 21 22  1  0
 22 23  1  0
 23 24  1  0
 24 25  2  0
 24 26  1  0
 21 27  1  0
 27 28  2  0
 27 29  1  0
 17 30  1  0
 30 31  2  0
 11 32  1  0
  8  2  1  0
 31 14  1  0
 32  6  1  0
  1 33  1  0
  1 34  1  0
  8 35  1  0
  9 36  1  0
 10 37  1  0
 10 38  1  0
 11 39  1  1
 12 40  1  0
 12 41  1  0
 13 42  1  0
 15 43  1  0
 16 44  1  0
 20 45  1  0
 21 46  1  6
 22 47  1  0
 22 48  1  0
 23 49  1  0
 23 50  1  0
 26 51  1  0
 29 52  1  0
 30 53  1  0
 31 54  1  0
 32 55  1  0
M  END
$$$$

     RDKit          3D

 55 57  0  0  0  0  0  0  0  0999 V2000
   -7.0558    1.1630    3.5747 N   0  0  0  0  0  0  0  0  0  0  0  0
   -6.3624    0.4605    2.5646 C   0  0  0  0  0  0  0  0  0  0  0  0
   -6.4860   -0.8712    2.4973 N   0  0  0  0  0  0  0  0  0  0  0  0
   -5.8454   -1.6024    1.5502 C   0  0  0  0  0  0  0  0  0  0  0  0
   -5.9591   -2.8565    1.4831 O   0  0  0  0  0  0  0  0  0  0  0  0
   -5.0469   -0.9352    0.6374 C   0  0  0  0  0  0  0  0  0  0  0  0
   -4.9250    0.4407    0.7144 C   0  0  0  0  0  0  0  0  0  0  0  0
   -5.5962    1.1199    1.6922 N   0  0  0  0  0  0  0  0  0  0  0  0
   -4.1011    1.1218   -0.2283 N   0  0  0  0  0  0  0  0  0  0  0  0
   -3.8222    0.4032   -1.4672 C   0  0  0  0  0  0  0  0  0  0  0  0
   -3.2609   -0.9527   -1.0398 C   0  0  2  0  0  0  0  0  0  0  0  0
   -2.8275   -1.7239   -2.2911 C   0  0  0  0  0  0  0  0  0  0  0  0
   -1.8090   -1.0201   -3.0334 N   0  0  0  0  0  0  0  0  0  0  0  0
   -0.4910   -0.7775   -2.5744 C   0  0  0  0  0  0  0  0  0  0  0  0
    0.0444   -1.3799   -1.4580 C   0  0  0  0  0  0  0  0  0  0  0  0
    1.3498   -1.0836   -1.0483 C   0  0  0  0  0  0  0  0  0  0  0  0
    2.1124   -0.1856   -1.7593 C   0  0  0  0  0  0  0  0  0  0  0  0
    3.4679    0.1451   -1.3646 C   0  0  0  0  0  0  0  0  0  0  0  0
    4.1059    1.0260   -2.0096 O   0  0  0  0  0  0  0  0  0  0  0  0
    4.1521   -0.4527   -0.2895 N   0  0  0  0  0  0  0  0  0  0  0  0
    5.5300   -0.1041    0.0997 C   0  0  1  0  0  0  0  0  0  0  0  0
    5.5822    0.3577    1.5223 C   0  0  0  0  0  0  0  0  0  0  0  0
    4.7547    1.5507    1.8069 C   0  0  0  0  0  0  0  0  0  0  0  0
    5.1783    2.7299    1.0475 C   0  0  0  0  0  0  0  0  0  0  0  0
    6.1637    2.7454    0.3000 O   0  0  0  0  0  0  0  0  0  0  0  0
    4.4579    3.9367    1.1385 O   0  0  0  0  0  0  0  0  0  0  0  0
    6.3140   -1.3586    0.0229 C   0  0  0  0  0  0  0  0  0  0  0  0
    5.7825   -2.4252   -0.3187 O   0  0  0  0  0  0  0  0  0  0  0  0
    7.6534   -1.3274    0.3382 O   0  0  0  0  0  0  0  0  0  0  0  0
    1.5589    0.4035   -2.8701 C   0  0  0  0  0  0  0  0  0  0  0  0
    0.2764    0.1361   -3.3033 C   0  0  0  0  0  0  0  0  0  0  0  0
   -4.3456   -1.6550   -0.3858 N   0  0  0  0  0  0  0  0  0  0  0  0
   -8.0960    1.2843    3.6109 H   0  0  0  0  0  0  0  0  0  0  0  0
   -6.5070    1.6048    4.3579 H   0  0  0  0  0  0  0  0  0  0  0  0
   -5.4741    2.1431    1.7092 H   0  0  0  0  0  0  0  0  0  0  0  0
   -3.7509    2.0567   -0.0037 H   0  0  0  0  0  0  0  0  0  0  0  0
   -3.0930    1.0008   -2.0236 H   0  0  0  0  0  0  0  0  0  0  0  0
   -4.7612    0.2083   -2.0276 H   0  0  0  0  0  0  0  0  0  0  0  0
   -2.4132   -0.7407   -0.3814 H   0  0  0  0  0  0  0  0  0  0  0  0
   -2.4257   -2.7179   -1.9946 H   0  0  0  0  0  0  0  0  0  0  0  0
   -3.7113   -1.9157   -2.9298 H   0  0  0  0  0  0  0  0  0  0  0  0
   -2.0686   -0.6579   -3.9992 H   0  0  0  0  0  0  0  0  0  0  0  0
   -0.5610   -2.0864   -0.9164 H   0  0  0  0  0  0  0  0  0  0  0  0
    1.7244   -1.5722   -0.1786 H   0  0  0  0  0  0  0  0  0  0  0  0
    3.6738   -1.1806    0.2688 H   0  0  0  0  0  0  0  0  0  0  0  0
    5.9312    0.6803   -0.5539 H   0  0  0  0  0  0  0  0  0  0  0  0
    6.6728    0.5499    1.7380 H   0  0  0  0  0  0  0  0  0  0  0  0
    5.2721   -0.4813    2.1857 H   0  0  0  0  0  0  0  0  0  0  0  0
    3.7033    1.3016    1.5162 H   0  0  0  0  0  0  0  0  0  0  0  0
    4.7879    1.7417    2.9152 H   0  0  0  0  0  0  0  0  0  0  0  0
    4.8783    4.7907    0.8211 H   0  0  0  0  0  0  0  0  0  0  0  0
    8.2179   -2.1563    0.4896 H   0  0  0  0  0  0  0  0  0  0  0  0
    2.1856    1.1143   -3.4192 H   0  0  0  0  0  0  0  0  0  0  0  0
   -0.1194    0.6290   -4.1915 H   0  0  0  0  0  0  0  0  0  0  0  0
   -4.6160   -2.6253   -0.6288 H   0  0  0  0  0  0  0  0  0  0  0  0
  1  2  1  0
  2  3  2  0
  3  4  1  0
  4  5  2  0
  4  6  1  0
  6  7  2  0
  7  8  1  0
  7  9  1  0
  9 10  1  0
 10 11  1  0
 11 12  1  0
 12 13  1  0
 13 14  1  0
 14 15  2  0
 15 16  1  0
 16 17  2  0
 17 18  1  0
 18 19  2  0
 18 20  1  0
 20 21  1  0
 21 22  1  0
 22 23  1  0
 23 24  1  0
 24 25  2  0
 24 26  1  0
 21 27  1  0
 27 28  2  0
 27 29  1  0
 17 30  1  0
 30 31  2  0
 11 32  1  0
  8  2  1  0
 31 14  1  0
 32  6  1  0
  1 33  1  0
  1 34  1  0
  8 35  1  0
  9 36  1  0
 10 37  1  0
 10 38  1  0
 11 39  1  1
 12 40  1  0
 12 41  1  0
 13 42  1  0
 15 43  1  0
 16 44  1  0
 20 45  1  0
 21 46  1  6
 22 47  1  0
 22 48  1  0
 23 49  1  0
 23 50  1  0
 26 51  1  0
 29 52  1  0
 30 53  1  0
 31 54  1  0
 32 55  1  0
M  END
$$$$

     RDKit          3D

 55 57  0  0  0  0  0  0  0  0999 V2000
   -9.2686    0.7886   -0.3493 N   0  0  0  0  0  0  0  0  0  0  0  0
   -7.9029    0.4661   -0.6127 C   0  0  0  0  0  0  0  0  0  0  0  0
   -7.2089    1.0304   -1.6160 N   0  0  0  0  0  0  0  0  0  0  0  0
   -5.9242    0.7480   -1.8881 C   0  0  0  0  0  0  0  0  0  0  0  0
   -5.2563    1.2512   -2.8068 O   0  0  0  0  0  0  0  0  0  0  0  0
   -5.2903   -0.1786   -1.0818 C   0  0  0  0  0  0  0  0  0  0  0  0
   -5.9690   -0.7802   -0.0408 C   0  0  0  0  0  0  0  0  0  0  0  0
   -7.2510   -0.4330    0.1530 N   0  0  0  0  0  0  0  0  0  0  0  0
   -5.3048   -1.7397    0.7998 N   0  0  0  0  0  0  0  0  0  0  0  0
   -3.9641   -2.1973    0.5260 C   0  0  0  0  0  0  0  0  0  0  0  0
   -3.2049   -1.0961   -0.1511 C   0  0  2  0  0  0  0  0  0  0  0  0
   -3.1138    0.0713    0.8424 C   0  0  0  0  0  0  0  0  0  0  0  0
   -2.3773    1.1107    0.1703 N   0  0  0  0  0  0  0  0  0  0  0  0
   -0.9950    0.9035   -0.1034 C   0  0  0  0  0  0  0  0  0  0  0  0
   -0.2930   -0.0902    0.5149 C   0  0  0  0  0  0  0  0  0  0  0  0
    1.0575   -0.2936    0.2307 C   0  0  0  0  0  0  0  0  0  0  0  0
    1.7208    0.5023   -0.6806 C   0  0  0  0  0  0  0  0  0  0  0  0
    3.1396    0.3263   -0.9845 C   0  0  0  0  0  0  0  0  0  0  0  0
    3.5811    0.6924   -2.0748 O   0  0  0  0  0  0  0  0  0  0  0  0
    3.9825   -0.2708    0.0027 N   0  0  0  0  0  0  0  0  0  0  0  0
    5.4293   -0.4775   -0.2466 C   0  0  1  0  0  0  0  0  0  0  0  0
    6.1666    0.5706    0.5500 C   0  0  0  0  0  0  0  0  0  0  0  0
    7.6476    0.4669    0.3854 C   0  0  0  0  0  0  0  0  0  0  0  0
    8.3461    1.5493    1.1646 C   0  0  0  0  0  0  0  0  0  0  0  0
    7.6888    2.4094    1.8305 O   0  0  0  0  0  0  0  0  0  0  0  0
    9.7131    1.6043    1.1538 O   0  0  0  0  0  0  0  0  0  0  0  0
    5.8042   -1.8249    0.1469 C   0  0  0  0  0  0  0  0  0  0  0  0
    4.9034   -2.5781    0.6703 O   0  0  0  0  0  0  0  0  0  0  0  0
    7.0755   -2.3582   -0.0064 O   0  0  0  0  0  0  0  0  0  0  0  0
    0.9895    1.4964   -1.2884 C   0  0  0  0  0  0  0  0  0  0  0  0
   -0.3212    1.6999   -1.0188 C   0  0  0  0  0  0  0  0  0  0  0  0
   -3.9383   -0.5448   -1.2872 N   0  0  0  0  0  0  0  0  0  0  0  0
  -10.0549    0.1531   -0.5893 H   0  0  0  0  0  0  0  0  0  0  0  0
   -9.4771    1.6977    0.1017 H   0  0  0  0  0  0  0  0  0  0  0  0
   -7.7600   -0.8962    0.9448 H   0  0  0  0  0  0  0  0  0  0  0  0
   -5.7965   -2.1322    1.6466 H   0  0  0  0  0  0  0  0  0  0  0  0
   -3.9746   -3.1122   -0.1287 H   0  0  0  0  0  0  0  0  0  0  0  0
   -3.4039   -2.4410    1.4604 H   0  0  0  0  0  0  0  0  0  0  0  0
   -2.1971   -1.3891   -0.4702 H   0  0  0  0  0  0  0  0  0  0  0  0
   -4.1124    0.4405    1.1155 H   0  0  0  0  0  0  0  0  0  0  0  0
   -2.6340   -0.2531    1.7923 H   0  0  0  0  0  0  0  0  0  0  0  0
   -2.8514    1.9909   -0.1053 H   0  0  0  0  0  0  0  0  0  0  0  0
   -0.7431   -0.7539    1.2537 H   0  0  0  0  0  0  0  0  0  0  0  0
    1.5829   -1.1038    0.7468 H   0  0  0  0  0  0  0  0  0  0  0  0
    3.5346   -0.5483    0.8985 H   0  0  0  0  0  0  0  0  0  0  0  0
    5.5977   -0.2262   -1.3214 H   0  0  0  0  0  0  0  0  0  0  0  0
    5.8076    1.5766    0.1762 H   0  0  0  0  0  0  0  0  0  0  0  0
    5.9241    0.5411    1.6348 H   0  0  0  0  0  0  0  0  0  0  0  0
    7.9590    0.4627   -0.6756 H   0  0  0  0  0  0  0  0  0  0  0  0
    8.0293   -0.4974    0.8299 H   0  0  0  0  0  0  0  0  0  0  0  0
   10.2454    2.4451    1.3358 H   0  0  0  0  0  0  0  0  0  0  0  0
    7.4527   -2.9588    0.7418 H   0  0  0  0  0  0  0  0  0  0  0  0
    1.5497    2.1191   -2.0157 H   0  0  0  0  0  0  0  0  0  0  0  0
   -0.8620    2.4863   -1.5131 H   0  0  0  0  0  0  0  0  0  0  0  0
   -3.4782   -0.4256   -2.2115 H   0  0  0  0  0  0  0  0  0  0  0  0
  1  2  1  0
  2  3  2  0
  3  4  1  0
  4  5  2  0
  4  6  1  0
  6  7  2  0
  7  8  1  0
  7  9  1  0
  9 10  1  0
 10 11  1  0
 11 12  1  0
 12 13  1  0
 13 14  1  0
 14 15  2  0
 15 16  1  0
 16 17  2  0
 17 18  1  0
 18 19  2  0
 18 20  1  0
 20 21  1  0
 21 22  1  0
 22 23  1  0
 23 24  1  0
 24 25  2  0
 24 26  1  0
 21 27  1  0
 27 28  2  0
 27 29  1  0
 17 30  1  0
 30 31  2  0
 11 32  1  0
  8  2  1  0
 31 14  1  0
 32  6  1  0
  1 33  1  0
  1 34  1  0
  8 35  1  0
  9 36  1  0
 10 37  1  0
 10 38  1  0
 11 39  1  6
 12 40  1  0
 12 41  1  0
 13 42  1  0
 15 43  1  0
 16 44  1  0
 20 45  1  0
 21 46  1  6
 22 47  1  0
 22 48  1  0
 23 49  1  0
 23 50  1  0
 26 51  1  0
 29 52  1  0
 30 53  1  0
 31 54  1  0
 32 55  1  0
M  END
$$$$

     RDKit          3D

 55 57  0  0  0  0  0  0  0  0999 V2000
    9.9507   -0.1239   -1.3433 N   0  0  0  0  0  0  0  0  0  0  0  0
    8.5481    0.0264   -1.0534 C   0  0  0  0  0  0  0  0  0  0  0  0
    7.7842    0.8904   -1.7346 N   0  0  0  0  0  0  0  0  0  0  0  0
    6.4761    1.0516   -1.4870 C   0  0  0  0  0  0  0  0  0  0  0  0
    5.7671    1.8698   -2.1369 O   0  0  0  0  0  0  0  0  0  0  0  0
    5.8590    0.3069   -0.4897 C   0  0  0  0  0  0  0  0  0  0  0  0
    6.6537   -0.5906    0.2176 C   0  0  0  0  0  0  0  0  0  0  0  0
    7.9589   -0.6946   -0.0905 N   0  0  0  0  0  0  0  0  0  0  0  0
    6.0426   -1.3617    1.2407 N   0  0  0  0  0  0  0  0  0  0  0  0
    4.6333   -1.3473    1.5144 C   0  0  0  0  0  0  0  0  0  0  0  0
    3.9388   -0.1041    1.0239 C   0  0  2  0  0  0  0  0  0  0  0  0
    2.4725   -0.4567    0.8652 C   0  0  0  0  0  0  0  0  0  0  0  0
    1.7038    0.6774    0.3937 N   0  0  0  0  0  0  0  0  0  0  0  0
    0.2965    0.5733    0.1673 C   0  0  0  0  0  0  0  0  0  0  0  0
   -0.3670   -0.6205    0.3960 C   0  0  0  0  0  0  0  0  0  0  0  0
   -1.7251   -0.7085    0.1727 C   0  0  0  0  0  0  0  0  0  0  0  0
   -2.4710    0.3495   -0.2747 C   0  0  0  0  0  0  0  0  0  0  0  0
   -3.9275    0.2786   -0.5224 C   0  0  0  0  0  0  0  0  0  0  0  0
   -4.5184    1.3102   -0.9299 O   0  0  0  0  0  0  0  0  0  0  0  0
   -4.6805   -0.9013   -0.3196 N   0  0  0  0  0  0  0  0  0  0  0  0
   -6.0806   -1.0828   -0.5017 C   0  0  1  0  0  0  0  0  0  0  0  0
   -6.9015    0.2002   -0.5462 C   0  0  0  0  0  0  0  0  0  0  0  0
   -6.8431    0.9360    0.7478 C   0  0  0  0  0  0  0  0  0  0  0  0
   -7.6068    2.2215    0.6978 C   0  0  0  0  0  0  0  0  0  0  0  0
   -8.2143    2.6167   -0.3133 O   0  0  0  0  0  0  0  0  0  0  0  0
   -7.6203    2.9890    1.8506 O   0  0  0  0  0  0  0  0  0  0  0  0
   -6.5050   -2.0629   -1.4804 C   0  0  0  0  0  0  0  0  0  0  0  0
   -5.6688   -2.7486   -2.1660 O   0  0  0  0  0  0  0  0  0  0  0  0
   -7.8360   -2.3518   -1.7677 O   0  0  0  0  0  0  0  0  0  0  0  0
   -1.7833    1.5328   -0.4958 C   0  0  0  0  0  0  0  0  0  0  0  0
   -0.4200    1.6414   -0.2776 C   0  0  0  0  0  0  0  0  0  0  0  0
    4.4892    0.4365   -0.1895 N   0  0  0  0  0  0  0  0  0  0  0  0
   10.3392    0.4191   -2.1416 H   0  0  0  0  0  0  0  0  0  0  0  0
   10.5343   -0.7524   -0.7690 H   0  0  0  0  0  0  0  0  0  0  0  0
    8.5394   -1.3778    0.4556 H   0  0  0  0  0  0  0  0  0  0  0  0
    6.6525   -1.9698    1.8226 H   0  0  0  0  0  0  0  0  0  0  0  0
    4.4702   -1.4063    2.6040 H   0  0  0  0  0  0  0  0  0  0  0  0
    4.1195   -2.2248    1.0597 H   0  0  0  0  0  0  0  0  0  0  0  0
    4.0196    0.6734    1.8284 H   0  0  0  0  0  0  0  0  0  0  0  0
    2.4159   -1.3139    0.1451 H   0  0  0  0  0  0  0  0  0  0  0  0
    2.0816   -0.7283    1.8588 H   0  0  0  0  0  0  0  0  0  0  0  0
    2.2190    1.5672    0.2279 H   0  0  0  0  0  0  0  0  0  0  0  0
    0.2190   -1.4650    0.7513 H   0  0  0  0  0  0  0  0  0  0  0  0
   -2.1895   -1.6550    0.3654 H   0  0  0  0  0  0  0  0  0  0  0  0
   -4.1542   -1.7808    0.0127 H   0  0  0  0  0  0  0  0  0  0  0  0
   -6.4338   -1.4776    0.5434 H   0  0  0  0  0  0  0  0  0  0  0  0
   -6.7307    0.8125   -1.4271 H   0  0  0  0  0  0  0  0  0  0  0  0
   -7.9676   -0.1670   -0.6487 H   0  0  0  0  0  0  0  0  0  0  0  0
   -5.8616    1.0416    1.2023 H   0  0  0  0  0  0  0  0  0  0  0  0
   -7.4269    0.3443    1.5545 H   0  0  0  0  0  0  0  0  0  0  0  0
   -7.7611    4.0007    1.7744 H   0  0  0  0  0  0  0  0  0  0  0  0
   -8.1367   -3.2198   -2.1404 H   0  0  0  0  0  0  0  0  0  0  0  0
   -2.3003    2.4031   -0.8461 H   0  0  0  0  0  0  0  0  0  0  0  0
    0.0812    2.5955   -0.4657 H   0  0  0  0  0  0  0  0  0  0  0  0
    3.8661    0.9281   -0.8503 H   0  0  0  0  0  0  0  0  0  0  0  0
  1  2  1  0
  2  3  2  0
  3  4  1  0
  4  5  2  0
  4  6  1  0
  6  7  2  0
  7  8  1  0
  7  9  1  0
  9 10  1  0
 10 11  1  0
 11 12  1  0
 12 13  1  0
 13 14  1  0
 14 15  2  0
 15 16  1  0
 16 17  2  0
 17 18  1  0
 18 19  2  0
 18 20  1  0
 20 21  1  0
 21 22  1  0
 22 23  1  0
 23 24  1  0
 24 25  2  0
 24 26  1  0
 21 27  1  0
 27 28  2  0
 27 29  1  0
 17 30  1  0
 30 31  2  0
 11 32  1  0
  8  2  1  0
 31 14  1  0
 32  6  1  0
  1 33  1  0
  1 34  1  0
  8 35  1  0
  9 36  1  0
 10 37  1  0
 10 38  1  0
 11 39  1  1
 12 40  1  0
 12 41  1  0
 13 42  1  0
 15 43  1  0
 16 44  1  0
 20 45  1  0
 21 46  1  1
 22 47  1  0
 22 48  1  0
 23 49  1  0
 23 50  1  0
 26 51  1  0
 29 52  1  0
 30 53  1  0
 31 54  1  0
 32 55  1  0
M  END
$$$$

     RDKit          3D

 55 57  0  0  0  0  0  0  0  0999 V2000
   -9.5468   -1.6102    0.4184 N   0  0  0  0  0  0  0  0  0  0  0  0
   -8.2582   -1.0577    0.2041 C   0  0  0  0  0  0  0  0  0  0  0  0
   -8.2258    0.1882   -0.3546 N   0  0  0  0  0  0  0  0  0  0  0  0
   -7.0701    0.8037   -0.6009 C   0  0  0  0  0  0  0  0  0  0  0  0
   -6.9959    1.9430   -1.1108 O   0  0  0  0  0  0  0  0  0  0  0  0
   -5.8959    0.1533   -0.2781 C   0  0  0  0  0  0  0  0  0  0  0  0
   -5.9540   -1.0988    0.2829 C   0  0  0  0  0  0  0  0  0  0  0  0
   -7.1372   -1.7065    0.5248 N   0  0  0  0  0  0  0  0  0  0  0  0
   -4.7294   -1.7435    0.6069 N   0  0  0  0  0  0  0  0  0  0  0  0
   -3.5671   -0.9718    0.9325 C   0  0  0  0  0  0  0  0  0  0  0  0
   -3.4238    0.3006    0.1307 C   0  0  2  0  0  0  0  0  0  0  0  0
   -3.0106    1.3840    1.1181 C   0  0  0  0  0  0  0  0  0  0  0  0
   -1.7706    1.0537    1.7448 N   0  0  0  0  0  0  0  0  0  0  0  0
   -0.5267    1.0297    1.0216 C   0  0  0  0  0  0  0  0  0  0  0  0
   -0.3887    1.5496   -0.2252 C   0  0  0  0  0  0  0  0  0  0  0  0
    0.8443    1.4875   -0.8934 C   0  0  0  0  0  0  0  0  0  0  0  0
    1.9364    0.9011   -0.3022 C   0  0  0  0  0  0  0  0  0  0  0  0
    3.2051    0.8423   -0.9976 C   0  0  0  0  0  0  0  0  0  0  0  0
    3.3416    1.3537   -2.1651 O   0  0  0  0  0  0  0  0  0  0  0  0
    4.3822    0.2393   -0.4846 N   0  0  0  0  0  0  0  0  0  0  0  0
    5.6471    0.1811   -1.1777 C   0  0  1  0  0  0  0  0  0  0  0  0
    6.7404    0.9757   -0.5582 C   0  0  0  0  0  0  0  0  0  0  0  0
    7.1245    0.6332    0.8308 C   0  0  0  0  0  0  0  0  0  0  0  0
    7.6005   -0.7613    0.9583 C   0  0  0  0  0  0  0  0  0  0  0  0
    6.8686   -1.7438    1.2370 O   0  0  0  0  0  0  0  0  0  0  0  0
    8.9552   -1.0820    0.7672 O   0  0  0  0  0  0  0  0  0  0  0  0
    6.0398   -1.1805   -1.5767 C   0  0  0  0  0  0  0  0  0  0  0  0
    5.2812   -2.1452   -1.3384 O   0  0  0  0  0  0  0  0  0  0  0  0
    7.2389   -1.4194   -2.2145 O   0  0  0  0  0  0  0  0  0  0  0  0
    1.7857    0.3817    0.9525 C   0  0  0  0  0  0  0  0  0  0  0  0
    0.5657    0.4362    1.6288 C   0  0  0  0  0  0  0  0  0  0  0  0
   -4.6279    0.7355   -0.5104 N   0  0  0  0  0  0  0  0  0  0  0  0
   -9.9426   -2.2361   -0.2989 H   0  0  0  0  0  0  0  0  0  0  0  0
  -10.0719   -1.3903    1.2698 H   0  0  0  0  0  0  0  0  0  0  0  0
   -7.1568   -2.6537    0.9488 H   0  0  0  0  0  0  0  0  0  0  0  0
   -4.6832   -2.8009    0.6073 H   0  0  0  0  0  0  0  0  0  0  0  0
   -2.6598   -1.6263    0.8036 H   0  0  0  0  0  0  0  0  0  0  0  0
   -3.6142   -0.7686    2.0360 H   0  0  0  0  0  0  0  0  0  0  0  0
   -2.6565    0.1948   -0.6593 H   0  0  0  0  0  0  0  0  0  0  0  0
   -3.8111    1.4515    1.8577 H   0  0  0  0  0  0  0  0  0  0  0  0
   -2.9625    2.3360    0.5411 H   0  0  0  0  0  0  0  0  0  0  0  0
   -1.7785    0.8218    2.7745 H   0  0  0  0  0  0  0  0  0  0  0  0
   -1.2155    2.0323   -0.7313 H   0  0  0  0  0  0  0  0  0  0  0  0
    0.9674    1.8973   -1.8863 H   0  0  0  0  0  0  0  0  0  0  0  0
    4.3514   -0.2008    0.4631 H   0  0  0  0  0  0  0  0  0  0  0  0
    5.4353    0.7109   -2.1733 H   0  0  0  0  0  0  0  0  0  0  0  0
    6.4397    2.0624   -0.5875 H   0  0  0  0  0  0  0  0  0  0  0  0
    7.6067    0.9354   -1.2736 H   0  0  0  0  0  0  0  0  0  0  0  0
    7.9594    1.3131    1.1257 H   0  0  0  0  0  0  0  0  0  0  0  0
    6.2449    0.7654    1.4961 H   0  0  0  0  0  0  0  0  0  0  0  0
    9.1793   -1.9747    0.3009 H   0  0  0  0  0  0  0  0  0  0  0  0
    7.4446   -2.3672   -2.5028 H   0  0  0  0  0  0  0  0  0  0  0  0
    2.6122   -0.0954    1.4746 H   0  0  0  0  0  0  0  0  0  0  0  0
    0.4487    0.0231    2.6252 H   0  0  0  0  0  0  0  0  0  0  0  0
   -4.5654    1.5176   -1.1791 H   0  0  0  0  0  0  0  0  0  0  0  0
  1  2  1  0
  2  3  2  0
  3  4  1  0
  4  5  2  0
  4  6  1  0
  6  7  2  0
  7  8  1  0
  7  9  1  0
  9 10  1  0
 10 11  1  0
 11 12  1  0
 12 13  1  0
 13 14  1  0
 14 15  2  0
 15 16  1  0
 16 17  2  0
 17 18  1  0
 18 19  2  0
 18 20  1  0
 20 21  1  0
 21 22  1  0
 22 23  1  0
 23 24  1  0
 24 25  2  0
 24 26  1  0
 21 27  1  0
 27 28  2  0
 27 29  1  0
 17 30  1  0
 30 31  2  0
 11 32  1  0
  8  2  1  0
 31 14  1  0
 32  6  1  0
  1 33  1  0
  1 34  1  0
  8 35  1  0
  9 36  1  0
 10 37  1  0
 10 38  1  0
 11 39  1  6
 12 40  1  0
 12 41  1  0
 13 42  1  0
 15 43  1  0
 16 44  1  0
 20 45  1  0
 21 46  1  6
 22 47  1  0
 22 48  1  0
 23 49  1  0
 23 50  1  0
 26 51  1  0
 29 52  1  0
 30 53  1  0
 31 54  1  0
 32 55  1  0
M  END
$$$$

     RDKit          3D

 55 57  0  0  0  0  0  0  0  0999 V2000
   10.0428   -0.0018    0.9712 N   0  0  0  0  0  0  0  0  0  0  0  0
    8.7197   -0.1273    0.4828 C   0  0  0  0  0  0  0  0  0  0  0  0
    8.2588   -1.2820   -0.0266 N   0  0  0  0  0  0  0  0  0  0  0  0
    7.0037   -1.4299   -0.4973 C   0  0  0  0  0  0  0  0  0  0  0  0
    6.6073   -2.5317   -0.9689 O   0  0  0  0  0  0  0  0  0  0  0  0
    6.1258   -0.3495   -0.4643 C   0  0  0  0  0  0  0  0  0  0  0  0
    6.5967    0.8235    0.0543 C   0  0  0  0  0  0  0  0  0  0  0  0
    7.8565    0.9092    0.5072 N   0  0  0  0  0  0  0  0  0  0  0  0
    5.6985    1.9355    0.0915 N   0  0  0  0  0  0  0  0  0  0  0  0
    4.2640    1.7361    0.0206 C   0  0  0  0  0  0  0  0  0  0  0  0
    4.0015    0.7345   -1.1045 C   0  0  2  0  0  0  0  0  0  0  0  0
    2.5205    0.4826   -1.1307 C   0  0  0  0  0  0  0  0  0  0  0  0
    2.0303   -0.0639    0.1121 N   0  0  0  0  0  0  0  0  0  0  0  0
    0.6393   -0.3054    0.2472 C   0  0  0  0  0  0  0  0  0  0  0  0
    0.1260   -0.8573    1.4150 C   0  0  0  0  0  0  0  0  0  0  0  0
   -1.2258   -1.0854    1.5578 C   0  0  0  0  0  0  0  0  0  0  0  0
   -2.0952   -0.7604    0.5211 C   0  0  0  0  0  0  0  0  0  0  0  0
   -3.4994   -1.0082    0.7000 C   0  0  0  0  0  0  0  0  0  0  0  0
   -3.8897   -1.7272    1.6499 O   0  0  0  0  0  0  0  0  0  0  0  0
   -4.4477   -0.4501   -0.1817 N   0  0  0  0  0  0  0  0  0  0  0  0
   -5.9020   -0.7235    0.0291 C   0  0  1  0  0  0  0  0  0  0  0  0
   -6.4854    0.5940    0.3431 C   0  0  0  0  0  0  0  0  0  0  0  0
   -7.9216    0.7307    0.6292 C   0  0  0  0  0  0  0  0  0  0  0  0
   -8.8720    0.3792   -0.4380 C   0  0  0  0  0  0  0  0  0  0  0  0
   -9.8691   -0.3435   -0.1542 O   0  0  0  0  0  0  0  0  0  0  0  0
   -8.7374    0.8012   -1.7519 O   0  0  0  0  0  0  0  0  0  0  0  0
   -6.3928   -1.4596   -1.1223 C   0  0  0  0  0  0  0  0  0  0  0  0
   -5.5787   -1.6551   -2.0980 O   0  0  0  0  0  0  0  0  0  0  0  0
   -7.6425   -1.9976   -1.3218 O   0  0  0  0  0  0  0  0  0  0  0  0
   -1.6175   -0.2175   -0.6368 C   0  0  0  0  0  0  0  0  0  0  0  0
   -0.2439    0.0054   -0.7611 C   0  0  0  0  0  0  0  0  0  0  0  0
    4.7961   -0.4542   -0.9476 N   0  0  0  0  0  0  0  0  0  0  0  0
   10.5336   -0.7879    1.4568 H   0  0  0  0  0  0  0  0  0  0  0  0
   10.5145    0.9273    0.8230 H   0  0  0  0  0  0  0  0  0  0  0  0
    8.1821    1.8338    0.9000 H   0  0  0  0  0  0  0  0  0  0  0  0
    6.0769    2.9002    0.1706 H   0  0  0  0  0  0  0  0  0  0  0  0
    3.7940    2.6981   -0.3358 H   0  0  0  0  0  0  0  0  0  0  0  0
    3.8555    1.3832    0.9701 H   0  0  0  0  0  0  0  0  0  0  0  0
    4.2687    1.2065   -2.0743 H   0  0  0  0  0  0  0  0  0  0  0  0
    2.2640   -0.2551   -1.9333 H   0  0  0  0  0  0  0  0  0  0  0  0
    2.0319    1.4559   -1.3469 H   0  0  0  0  0  0  0  0  0  0  0  0
    2.6644   -0.2824    0.9009 H   0  0  0  0  0  0  0  0  0  0  0  0
    0.7654   -1.1178    2.2294 H   0  0  0  0  0  0  0  0  0  0  0  0
   -1.6455   -1.5143    2.4596 H   0  0  0  0  0  0  0  0  0  0  0  0
   -4.2306    0.1605   -0.9983 H   0  0  0  0  0  0  0  0  0  0  0  0
   -5.9402   -1.4029    0.9179 H   0  0  0  0  0  0  0  0  0  0  0  0
   -5.9252    0.9733    1.2603 H   0  0  0  0  0  0  0  0  0  0  0  0
   -6.1650    1.3402   -0.4586 H   0  0  0  0  0  0  0  0  0  0  0  0
   -8.1551    1.8208    0.8700 H   0  0  0  0  0  0  0  0  0  0  0  0
   -8.2183    0.2248    1.6031 H   0  0  0  0  0  0  0  0  0  0  0  0
   -9.6206    0.9898   -2.2521 H   0  0  0  0  0  0  0  0  0  0  0  0
   -8.1508   -1.9346   -2.1965 H   0  0  0  0  0  0  0  0  0  0  0  0
   -2.2926    0.0300   -1.4361 H   0  0  0  0  0  0  0  0  0  0  0  0
    0.1046    0.4353   -1.6879 H   0  0  0  0  0  0  0  0  0  0  0  0
    4.4218   -1.3856   -1.1791 H   0  0  0  0  0  0  0  0  0  0  0  0
  1  2  1  0
  2  3  2  0
  3  4  1  0
  4  5  2  0
  4  6  1  0
  6  7  2  0
  7  8  1  0
  7  9  1  0
  9 10  1  0
 10 11  1  0
 11 12  1  0
 12 13  1  0
 13 14  1  0
 14 15  2  0
 15 16  1  0
 16 17  2  0
 17 18  1  0
 18 19  2  0
 18 20  1  0
 20 21  1  0
 21 22  1  0
 22 23  1  0
 23 24  1  0
 24 25  2  0
 24 26  1  0
 21 27  1  0
 27 28  2  0
 27 29  1  0
 17 30  1  0
 30 31  2  0
 11 32  1  0
  8  2  1  0
 31 14  1  0
 32  6  1  0
  1 33  1  0
  1 34  1  0
  8 35  1  0
  9 36  1  0
 10 37  1  0
 10 38  1  0
 11 39  1  6
 12 40  1  0
 12 41  1  0
 13 42  1  0
 15 43  1  0
 16 44  1  0
 20 45  1  0
 21 46  1  1
 22 47  1  0
 22 48  1  0
 23 49  1  0
 23 50  1  0
 26 51  1  0
 29 52  1  0
 30 53  1  0
 31 54  1  0
 32 55  1  0
M  END
$$$$

     RDKit          3D

 55 57  0  0  0  0  0  0  0  0999 V2000
   -8.6851    1.2188   -1.3367 N   0  0  0  0  0  0  0  0  0  0  0  0
   -7.2920    0.8908   -1.2769 C   0  0  0  0  0  0  0  0  0  0  0  0
   -6.3455    1.8501   -1.3261 N   0  0  0  0  0  0  0  0  0  0  0  0
   -5.0472    1.5214   -1.2672 C   0  0  0  0  0  0  0  0  0  0  0  0
   -4.1106    2.3737   -1.3089 O   0  0  0  0  0  0  0  0  0  0  0  0
   -4.7040    0.1843   -1.1553 C   0  0  0  0  0  0  0  0  0  0  0  0
   -5.6707   -0.7923   -1.1051 C   0  0  0  0  0  0  0  0  0  0  0  0
   -6.9605   -0.4048   -1.1684 N   0  0  0  0  0  0  0  0  0  0  0  0
   -5.2765   -2.1348   -0.9921 N   0  0  0  0  0  0  0  0  0  0  0  0
   -3.9425   -2.5623   -0.7067 C   0  0  0  0  0  0  0  0  0  0  0  0
   -3.0010   -1.4481   -0.3875 C   0  0  2  0  0  0  0  0  0  0  0  0
   -3.0508   -1.0809    1.1010 C   0  0  0  0  0  0  0  0  0  0  0  0
   -2.1574   -0.0164    1.4287 N   0  0  0  0  0  0  0  0  0  0  0  0
   -0.7264   -0.0970    1.3949 C   0  0  0  0  0  0  0  0  0  0  0  0
   -0.0320   -1.2763    1.2664 C   0  0  0  0  0  0  0  0  0  0  0  0
    1.3510   -1.3246    1.2210 C   0  0  0  0  0  0  0  0  0  0  0  0
    2.1035   -0.1651    1.3053 C   0  0  0  0  0  0  0  0  0  0  0  0
    3.5458   -0.1716    1.2677 C   0  0  0  0  0  0  0  0  0  0  0  0
    4.1205   -1.3073    1.4010 O   0  0  0  0  0  0  0  0  0  0  0  0
    4.3334    0.9832    1.0947 N   0  0  0  0  0  0  0  0  0  0  0  0
    5.8134    0.9384    1.0610 C   0  0  1  0  0  0  0  0  0  0  0  0
    6.2942    1.4969   -0.2518 C   0  0  0  0  0  0  0  0  0  0  0  0
    5.7601    0.7087   -1.3971 C   0  0  0  0  0  0  0  0  0  0  0  0
    6.2195   -0.6807   -1.3775 C   0  0  0  0  0  0  0  0  0  0  0  0
    7.0303   -1.0963   -0.5355 O   0  0  0  0  0  0  0  0  0  0  0  0
    5.7713   -1.6332   -2.3120 O   0  0  0  0  0  0  0  0  0  0  0  0
    6.3541    1.7281    2.1919 C   0  0  0  0  0  0  0  0  0  0  0  0
    5.5678    2.2898    2.9777 O   0  0  0  0  0  0  0  0  0  0  0  0
    7.7101    1.8459    2.3803 O   0  0  0  0  0  0  0  0  0  0  0  0
    1.4263    1.0166    1.4344 C   0  0  0  0  0  0  0  0  0  0  0  0
    0.0305    1.0627    1.4796 C   0  0  0  0  0  0  0  0  0  0  0  0
   -3.3412   -0.2217   -1.0867 N   0  0  0  0  0  0  0  0  0  0  0  0
   -8.9670    1.9821   -1.9821 H   0  0  0  0  0  0  0  0  0  0  0  0
   -9.4129    0.7484   -0.7815 H   0  0  0  0  0  0  0  0  0  0  0  0
   -7.6797   -1.1698   -1.1283 H   0  0  0  0  0  0  0  0  0  0  0  0
   -6.0119   -2.8667   -1.1262 H   0  0  0  0  0  0  0  0  0  0  0  0
   -3.5629   -3.1790   -1.5727 H   0  0  0  0  0  0  0  0  0  0  0  0
   -3.9662   -3.2855    0.1589 H   0  0  0  0  0  0  0  0  0  0  0  0
   -1.9782   -1.7754   -0.6005 H   0  0  0  0  0  0  0  0  0  0  0  0
   -2.8845   -1.9858    1.7259 H   0  0  0  0  0  0  0  0  0  0  0  0
   -4.0946   -0.7606    1.2825 H   0  0  0  0  0  0  0  0  0  0  0  0
   -2.5857    0.9131    1.7219 H   0  0  0  0  0  0  0  0  0  0  0  0
   -0.5626   -2.2124    1.2068 H   0  0  0  0  0  0  0  0  0  0  0  0
    1.8300   -2.2891    1.1175 H   0  0  0  0  0  0  0  0  0  0  0  0
    3.8447    1.8998    0.9851 H   0  0  0  0  0  0  0  0  0  0  0  0
    6.0668   -0.1144    1.2305 H   0  0  0  0  0  0  0  0  0  0  0  0
    6.0303    2.5766   -0.3609 H   0  0  0  0  0  0  0  0  0  0  0  0
    7.4135    1.4908   -0.2491 H   0  0  0  0  0  0  0  0  0  0  0  0
    4.6309    0.7373   -1.2930 H   0  0  0  0  0  0  0  0  0  0  0  0
    6.0248    1.2008   -2.3617 H   0  0  0  0  0  0  0  0  0  0  0  0
    5.8145   -2.6245   -2.1262 H   0  0  0  0  0  0  0  0  0  0  0  0
    8.1372    2.6791    2.8173 H   0  0  0  0  0  0  0  0  0  0  0  0
    1.9294    1.9933    1.5122 H   0  0  0  0  0  0  0  0  0  0  0  0
   -0.4945    1.9972    1.5813 H   0  0  0  0  0  0  0  0  0  0  0  0
   -2.6099    0.3486   -1.5240 H   0  0  0  0  0  0  0  0  0  0  0  0
  1  2  1  0
  2  3  2  0
  3  4  1  0
  4  5  2  0
  4  6  1  0
  6  7  2  0
  7  8  1  0
  7  9  1  0
  9 10  1  0
 10 11  1  0
 11 12  1  0
 12 13  1  0
 13 14  1  0
 14 15  2  0
 15 16  1  0
 16 17  2  0
 17 18  1  0
 18 19  2  0
 18 20  1  0
 20 21  1  0
 21 22  1  0
 22 23  1  0
 23 24  1  0
 24 25  2  0
 24 26  1  0
 21 27  1  0
 27 28  2  0
 27 29  1  0
 17 30  1  0
 30 31  2  0
 11 32  1  0
  8  2  1  0
 31 14  1  0
 32  6  1  0
  1 33  1  0
  1 34  1  0
  8 35  1  0
  9 36  1  0
 10 37  1  0
 10 38  1  0
 11 39  1  6
 12 40  1  0
 12 41  1  0
 13 42  1  0
 15 43  1  0
 16 44  1  0
 20 45  1  0
 21 46  1  1
 22 47  1  0
 22 48  1  0
 23 49  1  0
 23 50  1  0
 26 51  1  0
 29 52  1  0
 30 53  1  0
 31 54  1  0
 32 55  1  0
M  END
$$$$

     RDKit          3D

 55 57  0  0  0  0  0  0  0  0999 V2000
   -9.8194   -0.6364    0.9826 N   0  0  0  0  0  0  0  0  0  0  0  0
   -8.4833   -0.1537    0.8182 C   0  0  0  0  0  0  0  0  0  0  0  0
   -7.9375    0.5632    1.8008 N   0  0  0  0  0  0  0  0  0  0  0  0
   -6.6849    1.0136    1.6443 C   0  0  0  0  0  0  0  0  0  0  0  0
   -6.1144    1.6999    2.5443 O   0  0  0  0  0  0  0  0  0  0  0  0
   -5.9860    0.7273    0.4715 C   0  0  0  0  0  0  0  0  0  0  0  0
   -6.5930   -0.0167   -0.5142 C   0  0  0  0  0  0  0  0  0  0  0  0
   -7.8551   -0.4517   -0.3182 N   0  0  0  0  0  0  0  0  0  0  0  0
   -5.8992   -0.3277   -1.7345 N   0  0  0  0  0  0  0  0  0  0  0  0
   -4.5193    0.0460   -1.9054 C   0  0  0  0  0  0  0  0  0  0  0  0
   -4.1150    1.2107   -1.0617 C   0  0  2  0  0  0  0  0  0  0  0  0
   -2.5871    1.2332   -0.9350 C   0  0  0  0  0  0  0  0  0  0  0  0
   -2.1191    0.0193   -0.3174 N   0  0  0  0  0  0  0  0  0  0  0  0
   -0.7256   -0.1999   -0.1138 C   0  0  0  0  0  0  0  0  0  0  0  0
   -0.2758   -1.3809    0.4398 C   0  0  0  0  0  0  0  0  0  0  0  0
    1.0784   -1.5876    0.6326 C   0  0  0  0  0  0  0  0  0  0  0  0
    2.0200   -0.6394    0.2863 C   0  0  0  0  0  0  0  0  0  0  0  0
    3.4365   -0.9024    0.5028 C   0  0  0  0  0  0  0  0  0  0  0  0
    3.7941   -2.0507    0.8776 O   0  0  0  0  0  0  0  0  0  0  0  0
    4.4619    0.0491    0.3218 N   0  0  0  0  0  0  0  0  0  0  0  0
    5.8797   -0.2974    0.5609 C   0  0  1  0  0  0  0  0  0  0  0  0
    6.5261   -0.1929   -0.7757 C   0  0  0  0  0  0  0  0  0  0  0  0
    7.9816   -0.4200   -0.8723 C   0  0  0  0  0  0  0  0  0  0  0  0
    8.7323    0.6643   -0.2131 C   0  0  0  0  0  0  0  0  0  0  0  0
    8.1386    1.7589    0.0185 O   0  0  0  0  0  0  0  0  0  0  0  0
   10.0535    0.4510    0.1294 O   0  0  0  0  0  0  0  0  0  0  0  0
    6.4059    0.4153    1.6901 C   0  0  0  0  0  0  0  0  0  0  0  0
    5.7944    1.3764    2.2102 O   0  0  0  0  0  0  0  0  0  0  0  0
    7.6389    0.0662    2.2813 O   0  0  0  0  0  0  0  0  0  0  0  0
    1.5450    0.5285   -0.2631 C   0  0  0  0  0  0  0  0  0  0  0  0
    0.1863    0.7571   -0.4661 C   0  0  0  0  0  0  0  0  0  0  0  0
   -4.6635    1.1822    0.2705 N   0  0  0  0  0  0  0  0  0  0  0  0
  -10.5900   -0.0236    0.6419 H   0  0  0  0  0  0  0  0  0  0  0  0
   -9.9623   -1.5561    1.4249 H   0  0  0  0  0  0  0  0  0  0  0  0
   -8.2857   -1.0171   -1.0900 H   0  0  0  0  0  0  0  0  0  0  0  0
   -6.3845   -0.8209   -2.4974 H   0  0  0  0  0  0  0  0  0  0  0  0
   -4.3700    0.3550   -2.9821 H   0  0  0  0  0  0  0  0  0  0  0  0
   -3.8248   -0.7884   -1.7352 H   0  0  0  0  0  0  0  0  0  0  0  0
   -4.4109    2.1883   -1.5329 H   0  0  0  0  0  0  0  0  0  0  0  0
   -2.3454    2.1159   -0.3052 H   0  0  0  0  0  0  0  0  0  0  0  0
   -2.1125    1.4047   -1.9329 H   0  0  0  0  0  0  0  0  0  0  0  0
   -2.7957   -0.7349    0.0025 H   0  0  0  0  0  0  0  0  0  0  0  0
   -0.9997   -2.1577    0.7269 H   0  0  0  0  0  0  0  0  0  0  0  0
    1.4608   -2.5138    1.0686 H   0  0  0  0  0  0  0  0  0  0  0  0
    4.2016    1.0080    0.0141 H   0  0  0  0  0  0  0  0  0  0  0  0
    5.9199   -1.4013    0.8261 H   0  0  0  0  0  0  0  0  0  0  0  0
    6.0331   -0.9996   -1.4103 H   0  0  0  0  0  0  0  0  0  0  0  0
    6.2471    0.7508   -1.3116 H   0  0  0  0  0  0  0  0  0  0  0  0
    8.2398   -0.4448   -1.9709 H   0  0  0  0  0  0  0  0  0  0  0  0
    8.2590   -1.4242   -0.4805 H   0  0  0  0  0  0  0  0  0  0  0  0
   10.4663    1.0483    0.8348 H   0  0  0  0  0  0  0  0  0  0  0  0
    8.0113    0.5507    3.0824 H   0  0  0  0  0  0  0  0  0  0  0  0
    2.2286    1.3000   -0.5510 H   0  0  0  0  0  0  0  0  0  0  0  0
   -0.1787    1.6830   -0.9021 H   0  0  0  0  0  0  0  0  0  0  0  0
   -4.1021    1.4902    1.0869 H   0  0  0  0  0  0  0  0  0  0  0  0
  1  2  1  0
  2  3  2  0
  3  4  1  0
  4  5  2  0
  4  6  1  0
  6  7  2  0
  7  8  1  0
  7  9  1  0
  9 10  1  0
 10 11  1  0
 11 12  1  0
 12 13  1  0
 13 14  1  0
 14 15  2  0
 15 16  1  0
 16 17  2  0
 17 18  1  0
 18 19  2  0
 18 20  1  0
 20 21  1  0
 21 22  1  0
 22 23  1  0
 23 24  1  0
 24 25  2  0
 24 26  1  0
 21 27  1  0
 27 28  2  0
 27 29  1  0
 17 30  1  0
 30 31  2  0
 11 32  1  0
  8  2  1  0
 31 14  1  0
 32  6  1  0
  1 33  1  0
  1 34  1  0
  8 35  1  0
  9 36  1  0
 10 37  1  0
 10 38  1  0
 11 39  1  6
 12 40  1  0
 12 41  1  0
 13 42  1  0
 15 43  1  0
 16 44  1  0
 20 45  1  0
 21 46  1  1
 22 47  1  0
 22 48  1  0
 23 49  1  0
 23 50  1  0
 26 51  1  0
 29 52  1  0
 30 53  1  0
 31 54  1  0
 32 55  1  0
M  END
$$$$

     RDKit          3D

 55 57  0  0  0  0  0  0  0  0999 V2000
   -9.6099   -0.5035   -1.0197 N   0  0  0  0  0  0  0  0  0  0  0  0
   -8.2088   -0.4193   -1.2421 C   0  0  0  0  0  0  0  0  0  0  0  0
   -7.6891   -0.0579   -2.4310 N   0  0  0  0  0  0  0  0  0  0  0  0
   -6.3709    0.0312   -2.6733 C   0  0  0  0  0  0  0  0  0  0  0  0
   -5.8968    0.3725   -3.7971 O   0  0  0  0  0  0  0  0  0  0  0  0
   -5.4781   -0.2560   -1.6730 C   0  0  0  0  0  0  0  0  0  0  0  0
   -5.9882   -0.6289   -0.4449 C   0  0  0  0  0  0  0  0  0  0  0  0
   -7.3194   -0.7010   -0.2601 N   0  0  0  0  0  0  0  0  0  0  0  0
   -5.0483   -0.9203    0.5745 N   0  0  0  0  0  0  0  0  0  0  0  0
   -3.7090   -0.4348    0.6110 C   0  0  0  0  0  0  0  0  0  0  0  0
   -3.1250   -0.0814   -0.7345 C   0  0  2  0  0  0  0  0  0  0  0  0
   -2.7225    1.3755   -0.6619 C   0  0  0  0  0  0  0  0  0  0  0  0
   -1.7544    1.5711    0.3665 N   0  0  0  0  0  0  0  0  0  0  0  0
   -0.4318    1.0619    0.2947 C   0  0  0  0  0  0  0  0  0  0  0  0
    0.3895    1.0481    1.4275 C   0  0  0  0  0  0  0  0  0  0  0  0
    1.6853    0.5793    1.4046 C   0  0  0  0  0  0  0  0  0  0  0  0
    2.2384    0.0944    0.2425 C   0  0  0  0  0  0  0  0  0  0  0  0
    3.6013   -0.4124    0.1660 C   0  0  0  0  0  0  0  0  0  0  0  0
    4.0323   -0.8583   -0.9355 O   0  0  0  0  0  0  0  0  0  0  0  0
    4.4808   -0.4376    1.2550 N   0  0  0  0  0  0  0  0  0  0  0  0
    5.8522   -0.9570    1.1451 C   0  0  1  0  0  0  0  0  0  0  0  0
    6.8088    0.1301    1.4902 C   0  0  0  0  0  0  0  0  0  0  0  0
    6.6355    1.2891    0.5528 C   0  0  0  0  0  0  0  0  0  0  0  0
    6.8871    1.0012   -0.8602 C   0  0  0  0  0  0  0  0  0  0  0  0
    7.2626   -0.0789   -1.3574 O   0  0  0  0  0  0  0  0  0  0  0  0
    6.6909    2.0456   -1.7902 O   0  0  0  0  0  0  0  0  0  0  0  0
    6.0107   -2.1585    2.0102 C   0  0  0  0  0  0  0  0  0  0  0  0
    5.0451   -2.5809    2.6962 O   0  0  0  0  0  0  0  0  0  0  0  0
    7.2085   -2.8462    2.0918 O   0  0  0  0  0  0  0  0  0  0  0  0
    1.4401    0.1031   -0.8784 C   0  0  0  0  0  0  0  0  0  0  0  0
    0.1399    0.5729   -0.8596 C   0  0  0  0  0  0  0  0  0  0  0  0
   -4.0674   -0.1945   -1.8228 N   0  0  0  0  0  0  0  0  0  0  0  0
  -10.1350   -1.3835   -0.8346 H   0  0  0  0  0  0  0  0  0  0  0  0
  -10.1602    0.3805   -1.0421 H   0  0  0  0  0  0  0  0  0  0  0  0
   -7.6894   -0.9864    0.6800 H   0  0  0  0  0  0  0  0  0  0  0  0
   -5.3727   -1.5444    1.3628 H   0  0  0  0  0  0  0  0  0  0  0  0
   -3.6070    0.3956    1.3579 H   0  0  0  0  0  0  0  0  0  0  0  0
   -3.0696   -1.2576    1.0316 H   0  0  0  0  0  0  0  0  0  0  0  0
   -2.2449   -0.7042   -0.9803 H   0  0  0  0  0  0  0  0  0  0  0  0
   -3.6632    1.9325   -0.3988 H   0  0  0  0  0  0  0  0  0  0  0  0
   -2.3901    1.7611   -1.6491 H   0  0  0  0  0  0  0  0  0  0  0  0
   -2.0058    2.1194    1.2373 H   0  0  0  0  0  0  0  0  0  0  0  0
   -0.0626    1.4368    2.3475 H   0  0  0  0  0  0  0  0  0  0  0  0
    2.2728    0.5966    2.3253 H   0  0  0  0  0  0  0  0  0  0  0  0
    4.1660   -0.0788    2.1830 H   0  0  0  0  0  0  0  0  0  0  0  0
    6.0190   -1.2917    0.1121 H   0  0  0  0  0  0  0  0  0  0  0  0
    7.8666   -0.2217    1.5038 H   0  0  0  0  0  0  0  0  0  0  0  0
    6.5816    0.5400    2.5191 H   0  0  0  0  0  0  0  0  0  0  0  0
    7.2949    2.1487    0.8262 H   0  0  0  0  0  0  0  0  0  0  0  0
    5.5723    1.6348    0.6598 H   0  0  0  0  0  0  0  0  0  0  0  0
    6.3874    1.8126   -2.7485 H   0  0  0  0  0  0  0  0  0  0  0  0
    7.5299   -3.2168    3.0000 H   0  0  0  0  0  0  0  0  0  0  0  0
    1.8595   -0.2781   -1.8140 H   0  0  0  0  0  0  0  0  0  0  0  0
   -0.4630    0.5744   -1.7790 H   0  0  0  0  0  0  0  0  0  0  0  0
   -3.6759   -0.2334   -2.7870 H   0  0  0  0  0  0  0  0  0  0  0  0
  1  2  1  0
  2  3  2  0
  3  4  1  0
  4  5  2  0
  4  6  1  0
  6  7  2  0
  7  8  1  0
  7  9  1  0
  9 10  1  0
 10 11  1  0
 11 12  1  0
 12 13  1  0
 13 14  1  0
 14 15  2  0
 15 16  1  0
 16 17  2  0
 17 18  1  0
 18 19  2  0
 18 20  1  0
 20 21  1  0
 21 22  1  0
 22 23  1  0
 23 24  1  0
 24 25  2  0
 24 26  1  0
 21 27  1  0
 27 28  2  0
 27 29  1  0
 17 30  1  0
 30 31  2  0
 11 32  1  0
  8  2  1  0
 31 14  1  0
 32  6  1  0
  1 33  1  0
  1 34  1  0
  8 35  1  0
  9 36  1  0
 10 37  1  0
 10 38  1  0
 11 39  1  6
 12 40  1  0
 12 41  1  0
 13 42  1  0
 15 43  1  0
 16 44  1  0
 20 45  1  0
 21 46  1  6
 22 47  1  0
 22 48  1  0
 23 49  1  0
 23 50  1  0
 26 51  1  0
 29 52  1  0
 30 53  1  0
 31 54  1  0
 32 55  1  0
M  END
$$$$

     RDKit          3D

 55 57  0  0  0  0  0  0  0  0999 V2000
    9.6179   -1.4372   -0.2118 N   0  0  0  0  0  0  0  0  0  0  0  0
    8.4120   -0.7252   -0.0815 C   0  0  0  0  0  0  0  0  0  0  0  0
    8.3434    0.6125   -0.1695 N   0  0  0  0  0  0  0  0  0  0  0  0
    7.1901    1.3066   -0.0422 C   0  0  0  0  0  0  0  0  0  0  0  0
    7.1556    2.5656   -0.1304 O   0  0  0  0  0  0  0  0  0  0  0  0
    6.0176    0.5838    0.1940 C   0  0  0  0  0  0  0  0  0  0  0  0
    6.1172   -0.7942    0.2814 C   0  0  0  0  0  0  0  0  0  0  0  0
    7.2860   -1.4271    0.1462 N   0  0  0  0  0  0  0  0  0  0  0  0
    4.8929   -1.4998    0.5308 N   0  0  0  0  0  0  0  0  0  0  0  0
    3.9010   -0.7598    1.2883 C   0  0  0  0  0  0  0  0  0  0  0  0
    3.5605    0.4933    0.4798 C   0  0  2  0  0  0  0  0  0  0  0  0
    3.1500    0.0664   -0.9387 C   0  0  0  0  0  0  0  0  0  0  0  0
    2.0446   -0.8175   -0.9127 N   0  0  0  0  0  0  0  0  0  0  0  0
    0.7281   -0.5177   -0.4938 C   0  0  0  0  0  0  0  0  0  0  0  0
    0.2388    0.7416   -0.2427 C   0  0  0  0  0  0  0  0  0  0  0  0
   -1.0491    0.9787    0.1858 C   0  0  0  0  0  0  0  0  0  0  0  0
   -1.9288   -0.0571    0.3879 C   0  0  0  0  0  0  0  0  0  0  0  0
   -3.3009    0.1295    0.8671 C   0  0  0  0  0  0  0  0  0  0  0  0
   -3.5246    0.2879    2.1195 O   0  0  0  0  0  0  0  0  0  0  0  0
   -4.4108    0.1412    0.0146 N   0  0  0  0  0  0  0  0  0  0  0  0
   -5.7630    0.3154    0.6122 C   0  0  1  0  0  0  0  0  0  0  0  0
   -6.2512    1.6060    0.0329 C   0  0  0  0  0  0  0  0  0  0  0  0
   -7.5879    2.0935    0.4140 C   0  0  0  0  0  0  0  0  0  0  0  0
   -8.6864    1.2385   -0.0212 C   0  0  0  0  0  0  0  0  0  0  0  0
   -9.7027    1.0400    0.7053 O   0  0  0  0  0  0  0  0  0  0  0  0
   -8.5664    0.6456   -1.2911 O   0  0  0  0  0  0  0  0  0  0  0  0
   -6.6184   -0.8088    0.2692 C   0  0  0  0  0  0  0  0  0  0  0  0
   -6.2550   -1.4957   -0.7594 O   0  0  0  0  0  0  0  0  0  0  0  0
   -7.7568   -1.2431    0.8967 O   0  0  0  0  0  0  0  0  0  0  0  0
   -1.4568   -1.3496    0.1393 C   0  0  0  0  0  0  0  0  0  0  0  0
   -0.1757   -1.5754   -0.2857 C   0  0  0  0  0  0  0  0  0  0  0  0
    4.7851    1.2651    0.3353 N   0  0  0  0  0  0  0  0  0  0  0  0
    9.7197   -2.4378    0.0917 H   0  0  0  0  0  0  0  0  0  0  0  0
   10.5086   -1.0265   -0.6175 H   0  0  0  0  0  0  0  0  0  0  0  0
    7.2913   -2.4775    0.2208 H   0  0  0  0  0  0  0  0  0  0  0  0
    4.7934   -2.4589    0.1672 H   0  0  0  0  0  0  0  0  0  0  0  0
    2.9885   -1.3714    1.4718 H   0  0  0  0  0  0  0  0  0  0  0  0
    4.2862   -0.4140    2.2697 H   0  0  0  0  0  0  0  0  0  0  0  0
    2.7446    1.0637    0.9460 H   0  0  0  0  0  0  0  0  0  0  0  0
    4.0106   -0.3635   -1.4814 H   0  0  0  0  0  0  0  0  0  0  0  0
    2.9379    1.0341   -1.4554 H   0  0  0  0  0  0  0  0  0  0  0  0
    2.2375   -1.8185   -1.2406 H   0  0  0  0  0  0  0  0  0  0  0  0
    0.8854    1.5845   -0.3945 H   0  0  0  0  0  0  0  0  0  0  0  0
   -1.4096    2.0040    0.3788 H   0  0  0  0  0  0  0  0  0  0  0  0
   -4.3468    0.0325   -1.0158 H   0  0  0  0  0  0  0  0  0  0  0  0
   -5.6790    0.3701    1.7237 H   0  0  0  0  0  0  0  0  0  0  0  0
   -6.1414    1.5181   -1.1001 H   0  0  0  0  0  0  0  0  0  0  0  0
   -5.5138    2.4270    0.3127 H   0  0  0  0  0  0  0  0  0  0  0  0
   -7.7137    3.1149   -0.0702 H   0  0  0  0  0  0  0  0  0  0  0  0
   -7.6223    2.3065    1.5180 H   0  0  0  0  0  0  0  0  0  0  0  0
   -9.2762    0.0338   -1.6194 H   0  0  0  0  0  0  0  0  0  0  0  0
   -7.8904   -2.2690    0.9625 H   0  0  0  0  0  0  0  0  0  0  0  0
   -2.1618   -2.1504    0.3012 H   0  0  0  0  0  0  0  0  0  0  0  0
    0.1799   -2.5936   -0.4768 H   0  0  0  0  0  0  0  0  0  0  0  0
    4.7650    2.2886    0.3393 H   0  0  0  0  0  0  0  0  0  0  0  0
  1  2  1  0
  2  3  2  0
  3  4  1  0
  4  5  2  0
  4  6  1  0
  6  7  2  0
  7  8  1  0
  7  9  1  0
  9 10  1  0
 10 11  1  0
 11 12  1  0
 12 13  1  0
 13 14  1  0
 14 15  2  0
 15 16  1  0
 16 17  2  0
 17 18  1  0
 18 19  2  0
 18 20  1  0
 20 21  1  0
 21 22  1  0
 22 23  1  0
 23 24  1  0
 24 25  2  0
 24 26  1  0
 21 27  1  0
 27 28  2  0
 27 29  1  0
 17 30  1  0
 30 31  2  0
 11 32  1  0
  8  2  1  0
 31 14  1  0
 32  6  1  0
  1 33  1  0
  1 34  1  0
  8 35  1  0
  9 36  1  0
 10 37  1  0
 10 38  1  0
 11 39  1  1
 12 40  1  0
 12 41  1  0
 13 42  1  0
 15 43  1  0
 16 44  1  0
 20 45  1  0
 21 46  1  1
 22 47  1  0
 22 48  1  0
 23 49  1  0
 23 50  1  0
 26 51  1  0
 29 52  1  0
 30 53  1  0
 31 54  1  0
 32 55  1  0
M  END
$$$$

     RDKit          3D

 55 57  0  0  0  0  0  0  0  0999 V2000
   10.0773   -1.5839   -0.0460 N   0  0  0  0  0  0  0  0  0  0  0  0
    8.7564   -1.2254   -0.4232 C   0  0  0  0  0  0  0  0  0  0  0  0
    8.5327   -0.6767   -1.6338 N   0  0  0  0  0  0  0  0  0  0  0  0
    7.2701   -0.3473   -1.9637 C   0  0  0  0  0  0  0  0  0  0  0  0
    6.9899    0.1684   -3.0766 O   0  0  0  0  0  0  0  0  0  0  0  0
    6.2131   -0.5628   -1.0853 C   0  0  0  0  0  0  0  0  0  0  0  0
    6.4881   -1.1264    0.1421 C   0  0  0  0  0  0  0  0  0  0  0  0
    7.7711   -1.4557    0.4644 N   0  0  0  0  0  0  0  0  0  0  0  0
    5.4125   -1.3445    1.0330 N   0  0  0  0  0  0  0  0  0  0  0  0
    4.0238   -1.1620    0.7099 C   0  0  0  0  0  0  0  0  0  0  0  0
    3.9207   -0.0284   -0.3182 C   0  0  2  0  0  0  0  0  0  0  0  0
    2.5195    0.0856   -0.8542 C   0  0  0  0  0  0  0  0  0  0  0  0
    1.5865    0.3601    0.2047 N   0  0  0  0  0  0  0  0  0  0  0  0
    0.1904    0.5214   -0.0175 C   0  0  0  0  0  0  0  0  0  0  0  0
   -0.6472    0.7752    1.0300 C   0  0  0  0  0  0  0  0  0  0  0  0
   -2.0286    0.9469    0.8980 C   0  0  0  0  0  0  0  0  0  0  0  0
   -2.5650    0.8527   -0.3643 C   0  0  0  0  0  0  0  0  0  0  0  0
   -3.9933    1.0233   -0.5440 C   0  0  0  0  0  0  0  0  0  0  0  0
   -4.4465    0.9519   -1.7270 O   0  0  0  0  0  0  0  0  0  0  0  0
   -4.9312    1.2629    0.4843 N   0  0  0  0  0  0  0  0  0  0  0  0
   -6.3669    1.4217    0.1900 C   0  0  1  0  0  0  0  0  0  0  0  0
   -7.0827    0.4107    1.0350 C   0  0  0  0  0  0  0  0  0  0  0  0
   -6.7012   -1.0029    0.7812 C   0  0  0  0  0  0  0  0  0  0  0  0
   -6.9947   -1.4148   -0.6052 C   0  0  0  0  0  0  0  0  0  0  0  0
   -7.5439   -0.6444   -1.4303 O   0  0  0  0  0  0  0  0  0  0  0  0
   -6.6416   -2.7168   -1.0004 O   0  0  0  0  0  0  0  0  0  0  0  0
   -6.7465    2.7659    0.7239 C   0  0  0  0  0  0  0  0  0  0  0  0
   -5.9316    3.5353    1.2946 O   0  0  0  0  0  0  0  0  0  0  0  0
   -8.0524    3.1914    0.5883 O   0  0  0  0  0  0  0  0  0  0  0  0
   -1.7198    0.5941   -1.4402 C   0  0  0  0  0  0  0  0  0  0  0  0
   -0.3623    0.4291   -1.2827 C   0  0  0  0  0  0  0  0  0  0  0  0
    4.8765   -0.2326   -1.3904 N   0  0  0  0  0  0  0  0  0  0  0  0
   10.5906   -0.9795    0.6277 H   0  0  0  0  0  0  0  0  0  0  0  0
   10.4826   -2.4465   -0.4636 H   0  0  0  0  0  0  0  0  0  0  0  0
    7.9197   -1.8733    1.3931 H   0  0  0  0  0  0  0  0  0  0  0  0
    5.6538   -1.6643    2.0035 H   0  0  0  0  0  0  0  0  0  0  0  0
    3.5014   -0.7970    1.6342 H   0  0  0  0  0  0  0  0  0  0  0  0
    3.5416   -2.0764    0.3290 H   0  0  0  0  0  0  0  0  0  0  0  0
    4.1704    0.8998    0.2359 H   0  0  0  0  0  0  0  0  0  0  0  0
    2.1899   -0.8555   -1.3526 H   0  0  0  0  0  0  0  0  0  0  0  0
    2.5236    0.8695   -1.6270 H   0  0  0  0  0  0  0  0  0  0  0  0
    1.9479    0.4444    1.1749 H   0  0  0  0  0  0  0  0  0  0  0  0
   -0.2677    0.8591    2.0529 H   0  0  0  0  0  0  0  0  0  0  0  0
   -2.6200    1.1455    1.7822 H   0  0  0  0  0  0  0  0  0  0  0  0
   -4.5804    1.3248    1.4625 H   0  0  0  0  0  0  0  0  0  0  0  0
   -6.5505    1.3316   -0.8740 H   0  0  0  0  0  0  0  0  0  0  0  0
   -6.8522    0.6408    2.1076 H   0  0  0  0  0  0  0  0  0  0  0  0
   -8.2007    0.5365    0.9764 H   0  0  0  0  0  0  0  0  0  0  0  0
   -7.2715   -1.7013    1.4414 H   0  0  0  0  0  0  0  0  0  0  0  0
   -5.6215   -1.1583    0.9871 H   0  0  0  0  0  0  0  0  0  0  0  0
   -6.8671   -3.0011   -1.9457 H   0  0  0  0  0  0  0  0  0  0  0  0
   -8.2992    4.1193    0.8810 H   0  0  0  0  0  0  0  0  0  0  0  0
   -2.1775    0.5246   -2.4365 H   0  0  0  0  0  0  0  0  0  0  0  0
    0.3032    0.2290   -2.1034 H   0  0  0  0  0  0  0  0  0  0  0  0
    4.6102   -0.1432   -2.4070 H   0  0  0  0  0  0  0  0  0  0  0  0
  1  2  1  0
  2  3  2  0
  3  4  1  0
  4  5  2  0
  4  6  1  0
  6  7  2  0
  7  8  1  0
  7  9  1  0
  9 10  1  0
 10 11  1  0
 11 12  1  0
 12 13  1  0
 13 14  1  0
 14 15  2  0
 15 16  1  0
 16 17  2  0
 17 18  1  0
 18 19  2  0
 18 20  1  0
 20 21  1  0
 21 22  1  0
 22 23  1  0
 23 24  1  0
 24 25  2  0
 24 26  1  0
 21 27  1  0
 27 28  2  0
 27 29  1  0
 17 30  1  0
 30 31  2  0
 11 32  1  0
  8  2  1  0
 31 14  1  0
 32  6  1  0
  1 33  1  0
  1 34  1  0
  8 35  1  0
  9 36  1  0
 10 37  1  0
 10 38  1  0
 11 39  1  1
 12 40  1  0
 12 41  1  0
 13 42  1  0
 15 43  1  0
 16 44  1  0
 20 45  1  0
 21 46  1  6
 22 47  1  0
 22 48  1  0
 23 49  1  0
 23 50  1  0
 26 51  1  0
 29 52  1  0
 30 53  1  0
 31 54  1  0
 32 55  1  0
M  END
$$$$

     RDKit          3D

 55 57  0  0  0  0  0  0  0  0999 V2000
   -8.1106    3.2890   -1.2446 N   0  0  0  0  0  0  0  0  0  0  0  0
   -7.1657    2.2396   -1.0148 C   0  0  0  0  0  0  0  0  0  0  0  0
   -6.5664    1.5738   -2.0145 N   0  0  0  0  0  0  0  0  0  0  0  0
   -5.6877    0.5974   -1.7230 C   0  0  0  0  0  0  0  0  0  0  0  0
   -5.0975   -0.0583   -2.6299 O   0  0  0  0  0  0  0  0  0  0  0  0
   -5.3716    0.2459   -0.4132 C   0  0  0  0  0  0  0  0  0  0  0  0
   -6.0065    0.9514    0.5825 C   0  0  0  0  0  0  0  0  0  0  0  0
   -6.8812    1.9234    0.2709 N   0  0  0  0  0  0  0  0  0  0  0  0
   -5.6870    0.5990    1.9132 N   0  0  0  0  0  0  0  0  0  0  0  0
   -4.5069   -0.1327    2.2827 C   0  0  0  0  0  0  0  0  0  0  0  0
   -3.9614   -1.0373    1.2314 C   0  0  2  0  0  0  0  0  0  0  0  0
   -2.4389   -0.8761    1.1697 C   0  0  0  0  0  0  0  0  0  0  0  0
   -1.8513   -1.7308    0.1709 N   0  0  0  0  0  0  0  0  0  0  0  0
   -0.4424   -1.6721   -0.0092 C   0  0  0  0  0  0  0  0  0  0  0  0
    0.1338   -2.4966   -0.9419 C   0  0  0  0  0  0  0  0  0  0  0  0
    1.4961   -2.4397   -1.1188 C   0  0  0  0  0  0  0  0  0  0  0  0
    2.3234   -1.5852   -0.3973 C   0  0  0  0  0  0  0  0  0  0  0  0
    3.7693   -1.6129   -0.6710 C   0  0  0  0  0  0  0  0  0  0  0  0
    4.2614   -2.4652   -1.4620 O   0  0  0  0  0  0  0  0  0  0  0  0
    4.6915   -0.7001   -0.0757 N   0  0  0  0  0  0  0  0  0  0  0  0
    6.1054   -0.7291   -0.3440 C   0  0  1  0  0  0  0  0  0  0  0  0
    6.6323    0.3596   -1.2017 C   0  0  0  0  0  0  0  0  0  0  0  0
    6.4945    1.7560   -0.7488 C   0  0  0  0  0  0  0  0  0  0  0  0
    5.1208    2.2348   -0.5375 C   0  0  0  0  0  0  0  0  0  0  0  0
    4.7561    2.6019    0.5982 O   0  0  0  0  0  0  0  0  0  0  0  0
    4.2366    2.2776   -1.5955 O   0  0  0  0  0  0  0  0  0  0  0  0
    6.9098   -0.9474    0.8751 C   0  0  0  0  0  0  0  0  0  0  0  0
    6.3430   -1.0769    1.9717 O   0  0  0  0  0  0  0  0  0  0  0  0
    8.2762   -1.0047    0.7813 O   0  0  0  0  0  0  0  0  0  0  0  0
    1.7355   -0.7690    0.5289 C   0  0  0  0  0  0  0  0  0  0  0  0
    0.3523   -0.8158    0.7195 C   0  0  0  0  0  0  0  0  0  0  0  0
   -4.4526   -0.7787   -0.1046 N   0  0  0  0  0  0  0  0  0  0  0  0
   -8.2266    4.0919   -0.5867 H   0  0  0  0  0  0  0  0  0  0  0  0
   -8.7209    3.2817   -2.0897 H   0  0  0  0  0  0  0  0  0  0  0  0
   -7.3426    2.4358    1.0443 H   0  0  0  0  0  0  0  0  0  0  0  0
   -6.3471    0.8881    2.6674 H   0  0  0  0  0  0  0  0  0  0  0  0
   -4.6414   -0.6594    3.2714 H   0  0  0  0  0  0  0  0  0  0  0  0
   -3.7247    0.6463    2.5148 H   0  0  0  0  0  0  0  0  0  0  0  0
   -4.1718   -2.0928    1.5154 H   0  0  0  0  0  0  0  0  0  0  0  0
   -2.1609    0.1677    0.9286 H   0  0  0  0  0  0  0  0  0  0  0  0
   -2.0099   -1.0771    2.1911 H   0  0  0  0  0  0  0  0  0  0  0  0
   -2.4406   -2.3654   -0.3940 H   0  0  0  0  0  0  0  0  0  0  0  0
   -0.5060   -3.1657   -1.5086 H   0  0  0  0  0  0  0  0  0  0  0  0
    1.9552   -3.0815   -1.8464 H   0  0  0  0  0  0  0  0  0  0  0  0
    4.2913   -0.0036    0.5832 H   0  0  0  0  0  0  0  0  0  0  0  0
    6.2581   -1.6818   -0.9547 H   0  0  0  0  0  0  0  0  0  0  0  0
    7.7312    0.1596   -1.3324 H   0  0  0  0  0  0  0  0  0  0  0  0
    6.1693    0.2548   -2.2135 H   0  0  0  0  0  0  0  0  0  0  0  0
    7.1606    2.0041    0.1176 H   0  0  0  0  0  0  0  0  0  0  0  0
    6.9093    2.4163   -1.5772 H   0  0  0  0  0  0  0  0  0  0  0  0
    3.4349    2.9049   -1.5987 H   0  0  0  0  0  0  0  0  0  0  0  0
    8.8499   -1.2090    1.5923 H   0  0  0  0  0  0  0  0  0  0  0  0
    2.3535   -0.0965    1.1035 H   0  0  0  0  0  0  0  0  0  0  0  0
   -0.1003   -0.1747    1.4452 H   0  0  0  0  0  0  0  0  0  0  0  0
   -4.1305   -1.3649   -0.9153 H   0  0  0  0  0  0  0  0  0  0  0  0
  1  2  1  0
  2  3  2  0
  3  4  1  0
  4  5  2  0
  4  6  1  0
  6  7  2  0
  7  8  1  0
  7  9  1  0
  9 10  1  0
 10 11  1  0
 11 12  1  0
 12 13  1  0
 13 14  1  0
 14 15  2  0
 15 16  1  0
 16 17  2  0
 17 18  1  0
 18 19  2  0
 18 20  1  0
 20 21  1  0
 21 22  1  0
 22 23  1  0
 23 24  1  0
 24 25  2  0
 24 26  1  0
 21 27  1  0
 27 28  2  0
 27 29  1  0
 17 30  1  0
 30 31  2  0
 11 32  1  0
  8  2  1  0
 31 14  1  0
 32  6  1  0
  1 33  1  0
  1 34  1  0
  8 35  1  0
  9 36  1  0
 10 37  1  0
 10 38  1  0
 11 39  1  1
 12 40  1  0
 12 41  1  0
 13 42  1  0
 15 43  1  0
 16 44  1  0
 20 45  1  0
 21 46  1  6
 22 47  1  0
 22 48  1  0
 23 49  1  0
 23 50  1  0
 26 51  1  0
 29 52  1  0
 30 53  1  0
 31 54  1  0
 32 55  1  0
M  END
$$$$

     RDKit          3D

 55 57  0  0  0  0  0  0  0  0999 V2000
    9.2945    1.1058    1.8884 N   0  0  0  0  0  0  0  0  0  0  0  0
    8.0661    0.4729    1.6002 C   0  0  0  0  0  0  0  0  0  0  0  0
    7.3120    0.0493    2.6404 N   0  0  0  0  0  0  0  0  0  0  0  0
    6.1375   -0.5592    2.4769 C   0  0  0  0  0  0  0  0  0  0  0  0
    5.4171   -0.9627    3.4333 O   0  0  0  0  0  0  0  0  0  0  0  0
    5.6678   -0.7671    1.1787 C   0  0  0  0  0  0  0  0  0  0  0  0
    6.4576   -0.3250    0.1397 C   0  0  0  0  0  0  0  0  0  0  0  0
    7.6518    0.2930    0.3321 N   0  0  0  0  0  0  0  0  0  0  0  0
    5.9755   -0.5379   -1.1872 N   0  0  0  0  0  0  0  0  0  0  0  0
    4.5434   -0.5735   -1.3853 C   0  0  0  0  0  0  0  0  0  0  0  0
    3.8599   -1.4576   -0.3779 C   0  0  2  0  0  0  0  0  0  0  0  0
    2.4084   -1.0414   -0.2619 C   0  0  0  0  0  0  0  0  0  0  0  0
    1.7120   -1.1613   -1.5315 N   0  0  0  0  0  0  0  0  0  0  0  0
    0.3417   -0.7984   -1.5678 C   0  0  0  0  0  0  0  0  0  0  0  0
   -0.3211   -0.3429   -0.4500 C   0  0  0  0  0  0  0  0  0  0  0  0
   -1.6777    0.0092   -0.5168 C   0  0  0  0  0  0  0  0  0  0  0  0
   -2.3598   -0.0980   -1.7037 C   0  0  0  0  0  0  0  0  0  0  0  0
   -3.7620    0.2725   -1.7522 C   0  0  0  0  0  0  0  0  0  0  0  0
   -4.4214    0.1668   -2.8444 O   0  0  0  0  0  0  0  0  0  0  0  0
   -4.5185    0.7622   -0.6718 N   0  0  0  0  0  0  0  0  0  0  0  0
   -5.9048    1.1230   -0.7414 C   0  0  1  0  0  0  0  0  0  0  0  0
   -6.8014    0.3714    0.1710 C   0  0  0  0  0  0  0  0  0  0  0  0
   -6.4406    0.5427    1.6325 C   0  0  0  0  0  0  0  0  0  0  0  0
   -7.3539   -0.2186    2.5075 C   0  0  0  0  0  0  0  0  0  0  0  0
   -7.2293   -0.2118    3.7470 O   0  0  0  0  0  0  0  0  0  0  0  0
   -8.3678   -0.9534    1.9334 O   0  0  0  0  0  0  0  0  0  0  0  0
   -6.0033    2.5820   -0.5205 C   0  0  0  0  0  0  0  0  0  0  0  0
   -5.0274    3.3424   -0.3117 O   0  0  0  0  0  0  0  0  0  0  0  0
   -7.2663    3.1540   -0.5455 O   0  0  0  0  0  0  0  0  0  0  0  0
   -1.6633   -0.5565   -2.7964 C   0  0  0  0  0  0  0  0  0  0  0  0
   -0.3389   -0.9066   -2.7569 C   0  0  0  0  0  0  0  0  0  0  0  0
    4.4289   -1.4077    0.9339 N   0  0  0  0  0  0  0  0  0  0  0  0
    9.3878    2.1574    1.8351 H   0  0  0  0  0  0  0  0  0  0  0  0
   10.1370    0.5604    2.1594 H   0  0  0  0  0  0  0  0  0  0  0  0
    8.2146    0.6102   -0.4885 H   0  0  0  0  0  0  0  0  0  0  0  0
    6.6710   -0.6581   -1.9561 H   0  0  0  0  0  0  0  0  0  0  0  0
    4.1486    0.4780   -1.3703 H   0  0  0  0  0  0  0  0  0  0  0  0
    4.3794   -1.0006   -2.4037 H   0  0  0  0  0  0  0  0  0  0  0  0
    3.9271   -2.4988   -0.7640 H   0  0  0  0  0  0  0  0  0  0  0  0
    2.3959   -0.0093    0.1077 H   0  0  0  0  0  0  0  0  0  0  0  0
    1.9302   -1.7535    0.4379 H   0  0  0  0  0  0  0  0  0  0  0  0
    2.1851   -1.4963   -2.3807 H   0  0  0  0  0  0  0  0  0  0  0  0
    0.2269   -0.2596    0.4928 H   0  0  0  0  0  0  0  0  0  0  0  0
   -2.1072    0.3513    0.3985 H   0  0  0  0  0  0  0  0  0  0  0  0
   -4.0480    0.8751    0.2505 H   0  0  0  0  0  0  0  0  0  0  0  0
   -6.2404    0.9372   -1.7844 H   0  0  0  0  0  0  0  0  0  0  0  0
   -7.8261    0.7899    0.0560 H   0  0  0  0  0  0  0  0  0  0  0  0
   -6.8710   -0.6865   -0.1213 H   0  0  0  0  0  0  0  0  0  0  0  0
   -5.4095    0.1198    1.8189 H   0  0  0  0  0  0  0  0  0  0  0  0
   -6.4005    1.5880    1.9348 H   0  0  0  0  0  0  0  0  0  0  0  0
   -8.8596   -1.7056    2.3964 H   0  0  0  0  0  0  0  0  0  0  0  0
   -7.5165    3.9855   -0.0458 H   0  0  0  0  0  0  0  0  0  0  0  0
   -2.1885   -0.6450   -3.7343 H   0  0  0  0  0  0  0  0  0  0  0  0
    0.1246   -1.2570   -3.6674 H   0  0  0  0  0  0  0  0  0  0  0  0
    3.9223   -1.8505    1.7221 H   0  0  0  0  0  0  0  0  0  0  0  0
  1  2  1  0
  2  3  2  0
  3  4  1  0
  4  5  2  0
  4  6  1  0
  6  7  2  0
  7  8  1  0
  7  9  1  0
  9 10  1  0
 10 11  1  0
 11 12  1  0
 12 13  1  0
 13 14  1  0
 14 15  2  0
 15 16  1  0
 16 17  2  0
 17 18  1  0
 18 19  2  0
 18 20  1  0
 20 21  1  0
 21 22  1  0
 22 23  1  0
 23 24  1  0
 24 25  2  0
 24 26  1  0
 21 27  1  0
 27 28  2  0
 27 29  1  0
 17 30  1  0
 30 31  2  0
 11 32  1  0
  8  2  1  0
 31 14  1  0
 32  6  1  0
  1 33  1  0
  1 34  1  0
  8 35  1  0
  9 36  1  0
 10 37  1  0
 10 38  1  0
 11 39  1  6
 12 40  1  0
 12 41  1  0
 13 42  1  0
 15 43  1  0
 16 44  1  0
 20 45  1  0
 21 46  1  6
 22 47  1  0
 22 48  1  0
 23 49  1  0
 23 50  1  0
 26 51  1  0
 29 52  1  0
 30 53  1  0
 31 54  1  0
 32 55  1  0
M  END
$$$$

     RDKit          3D

 55 57  0  0  0  0  0  0  0  0999 V2000
   -9.6444   -0.3155    1.9903 N   0  0  0  0  0  0  0  0  0  0  0  0
   -8.3776    0.0937    1.4786 C   0  0  0  0  0  0  0  0  0  0  0  0
   -7.8583    1.3082    1.8143 N   0  0  0  0  0  0  0  0  0  0  0  0
   -6.6587    1.7027    1.3343 C   0  0  0  0  0  0  0  0  0  0  0  0
   -6.1601    2.8204    1.6309 O   0  0  0  0  0  0  0  0  0  0  0  0
   -5.9380    0.8850    0.4965 C   0  0  0  0  0  0  0  0  0  0  0  0
   -6.5018   -0.3350    0.1828 C   0  0  0  0  0  0  0  0  0  0  0  0
   -7.7008   -0.7201    0.6675 N   0  0  0  0  0  0  0  0  0  0  0  0
   -5.7638   -1.2056   -0.6950 N   0  0  0  0  0  0  0  0  0  0  0  0
   -4.3484   -0.9365   -0.8040 C   0  0  0  0  0  0  0  0  0  0  0  0
   -4.1486    0.5448   -1.1401 C   0  0  2  0  0  0  0  0  0  0  0  0
   -2.6644    0.7679   -1.2561 C   0  0  0  0  0  0  0  0  0  0  0  0
   -2.0375    0.4491    0.0046 N   0  0  0  0  0  0  0  0  0  0  0  0
   -0.6235    0.3511    0.1513 C   0  0  0  0  0  0  0  0  0  0  0  0
    0.2234    0.5569   -0.9297 C   0  0  0  0  0  0  0  0  0  0  0  0
    1.6023    0.4273   -0.7459 C   0  0  0  0  0  0  0  0  0  0  0  0
    2.1351    0.1028    0.4751 C   0  0  0  0  0  0  0  0  0  0  0  0
    3.5669   -0.0414    0.6678 C   0  0  0  0  0  0  0  0  0  0  0  0
    4.0402   -0.5022    1.7505 O   0  0  0  0  0  0  0  0  0  0  0  0
    4.5080    0.3142   -0.3184 N   0  0  0  0  0  0  0  0  0  0  0  0
    5.9505    0.1405   -0.0700 C   0  0  1  0  0  0  0  0  0  0  0  0
    6.4432   -0.7199   -1.2035 C   0  0  0  0  0  0  0  0  0  0  0  0
    7.9069   -1.0369   -1.1446 C   0  0  0  0  0  0  0  0  0  0  0  0
    8.2184   -1.7707    0.0869 C   0  0  0  0  0  0  0  0  0  0  0  0
    8.2101   -1.1973    1.1911 O   0  0  0  0  0  0  0  0  0  0  0  0
    8.5256   -3.1152    0.0284 O   0  0  0  0  0  0  0  0  0  0  0  0
    6.5469    1.4923   -0.0643 C   0  0  0  0  0  0  0  0  0  0  0  0
    5.8136    2.4881   -0.2615 O   0  0  0  0  0  0  0  0  0  0  0  0
    7.8893    1.6897    0.1517 O   0  0  0  0  0  0  0  0  0  0  0  0
    1.2570   -0.0918    1.5226 C   0  0  0  0  0  0  0  0  0  0  0  0
   -0.1164    0.0259    1.3869 C   0  0  0  0  0  0  0  0  0  0  0  0
   -4.6546    1.2928   -0.0221 N   0  0  0  0  0  0  0  0  0  0  0  0
  -10.2657    0.3838    2.4419 H   0  0  0  0  0  0  0  0  0  0  0  0
   -9.9269   -1.3005    1.9037 H   0  0  0  0  0  0  0  0  0  0  0  0
   -8.0557   -1.6663    0.3768 H   0  0  0  0  0  0  0  0  0  0  0  0
   -6.2765   -1.9631   -1.1912 H   0  0  0  0  0  0  0  0  0  0  0  0
   -3.8564   -1.1125    0.1684 H   0  0  0  0  0  0  0  0  0  0  0  0
   -3.8615   -1.5581   -1.5929 H   0  0  0  0  0  0  0  0  0  0  0  0
   -4.6840    0.7961   -2.0833 H   0  0  0  0  0  0  0  0  0  0  0  0
   -2.3026    0.0787   -2.0609 H   0  0  0  0  0  0  0  0  0  0  0  0
   -2.4564    1.8112   -1.5751 H   0  0  0  0  0  0  0  0  0  0  0  0
   -2.6463    0.2980    0.8337 H   0  0  0  0  0  0  0  0  0  0  0  0
   -0.1413    0.8112   -1.8993 H   0  0  0  0  0  0  0  0  0  0  0  0
    2.2284    0.5951   -1.6243 H   0  0  0  0  0  0  0  0  0  0  0  0
    4.1809    0.7020   -1.2242 H   0  0  0  0  0  0  0  0  0  0  0  0
    6.0913   -0.3169    0.9312 H   0  0  0  0  0  0  0  0  0  0  0  0
    5.8094   -1.6396   -1.1912 H   0  0  0  0  0  0  0  0  0  0  0  0
    6.1758   -0.1651   -2.1446 H   0  0  0  0  0  0  0  0  0  0  0  0
    8.1289   -1.6734   -2.0488 H   0  0  0  0  0  0  0  0  0  0  0  0
    8.4783   -0.0730   -1.2244 H   0  0  0  0  0  0  0  0  0  0  0  0
    8.7359   -3.7022    0.8158 H   0  0  0  0  0  0  0  0  0  0  0  0
    8.3006    2.6090    0.3330 H   0  0  0  0  0  0  0  0  0  0  0  0
    1.6718   -0.3483    2.4915 H   0  0  0  0  0  0  0  0  0  0  0  0
   -0.8007   -0.1270    2.2057 H   0  0  0  0  0  0  0  0  0  0  0  0
   -4.1678    2.0955    0.4336 H   0  0  0  0  0  0  0  0  0  0  0  0
  1  2  1  0
  2  3  2  0
  3  4  1  0
  4  5  2  0
  4  6  1  0
  6  7  2  0
  7  8  1  0
  7  9  1  0
  9 10  1  0
 10 11  1  0
 11 12  1  0
 12 13  1  0
 13 14  1  0
 14 15  2  0
 15 16  1  0
 16 17  2  0
 17 18  1  0
 18 19  2  0
 18 20  1  0
 20 21  1  0
 21 22  1  0
 22 23  1  0
 23 24  1  0
 24 25  2  0
 24 26  1  0
 21 27  1  0
 27 28  2  0
 27 29  1  0
 17 30  1  0
 30 31  2  0
 11 32  1  0
  8  2  1  0
 31 14  1  0
 32  6  1  0
  1 33  1  0
  1 34  1  0
  8 35  1  0
  9 36  1  0
 10 37  1  0
 10 38  1  0
 11 39  1  6
 12 40  1  0
 12 41  1  0
 13 42  1  0
 15 43  1  0
 16 44  1  0
 20 45  1  0
 21 46  1  1
 22 47  1  0
 22 48  1  0
 23 49  1  0
 23 50  1  0
 26 51  1  0
 29 52  1  0
 30 53  1  0
 31 54  1  0
 32 55  1  0
M  END
$$$$

     RDKit          3D

 55 57  0  0  0  0  0  0  0  0999 V2000
   -9.0766   -0.0634   -0.1892 N   0  0  0  0  0  0  0  0  0  0  0  0
   -7.6858   -0.2089   -0.4192 C   0  0  0  0  0  0  0  0  0  0  0  0
   -7.1643    0.3434   -1.5308 N   0  0  0  0  0  0  0  0  0  0  0  0
   -5.8665    0.2291   -1.7815 C   0  0  0  0  0  0  0  0  0  0  0  0
   -5.2968    0.7127   -2.7938 O   0  0  0  0  0  0  0  0  0  0  0  0
   -5.0715   -0.4595   -0.8902 C   0  0  0  0  0  0  0  0  0  0  0  0
   -5.6231   -1.0224    0.2498 C   0  0  0  0  0  0  0  0  0  0  0  0
   -6.9458   -0.8904    0.4793 N   0  0  0  0  0  0  0  0  0  0  0  0
   -4.8064   -1.7351    1.1786 N   0  0  0  0  0  0  0  0  0  0  0  0
   -3.4711   -2.1221    0.7698 C   0  0  0  0  0  0  0  0  0  0  0  0
   -2.8524   -0.9429    0.0497 C   0  0  2  0  0  0  0  0  0  0  0  0
   -2.8967    0.2688    0.9405 C   0  0  0  0  0  0  0  0  0  0  0  0
   -2.3090    1.4194    0.2868 N   0  0  0  0  0  0  0  0  0  0  0  0
   -0.9250    1.4181    0.0164 C   0  0  0  0  0  0  0  0  0  0  0  0
   -0.0879    0.4894    0.5607 C   0  0  0  0  0  0  0  0  0  0  0  0
    1.2843    0.4974    0.2656 C   0  0  0  0  0  0  0  0  0  0  0  0
    1.8400    1.4345   -0.5780 C   0  0  0  0  0  0  0  0  0  0  0  0
    3.2545    1.4769   -0.9088 C   0  0  0  0  0  0  0  0  0  0  0  0
    3.6393    2.3538   -1.7201 O   0  0  0  0  0  0  0  0  0  0  0  0
    4.2125    0.5939   -0.3728 N   0  0  0  0  0  0  0  0  0  0  0  0
    5.6235    0.6247   -0.6943 C   0  0  1  0  0  0  0  0  0  0  0  0
    6.4161    1.0038    0.5038 C   0  0  0  0  0  0  0  0  0  0  0  0
    6.3081    0.1289    1.6956 C   0  0  0  0  0  0  0  0  0  0  0  0
    6.7182   -1.2621    1.5166 C   0  0  0  0  0  0  0  0  0  0  0  0
    5.9406   -2.1934    1.1864 O   0  0  0  0  0  0  0  0  0  0  0  0
    8.0548   -1.6185    1.7169 O   0  0  0  0  0  0  0  0  0  0  0  0
    6.0541   -0.5918   -1.3981 C   0  0  0  0  0  0  0  0  0  0  0  0
    5.2556   -1.5401   -1.7167 O   0  0  0  0  0  0  0  0  0  0  0  0
    7.3708   -0.7900   -1.7654 O   0  0  0  0  0  0  0  0  0  0  0  0
    0.9590    2.3605   -1.1103 C   0  0  0  0  0  0  0  0  0  0  0  0
   -0.3921    2.3752   -0.8374 C   0  0  0  0  0  0  0  0  0  0  0  0
   -3.6779   -0.6058   -1.1213 N   0  0  0  0  0  0  0  0  0  0  0  0
   -9.7441   -0.5577   -0.8096 H   0  0  0  0  0  0  0  0  0  0  0  0
   -9.4022    0.5308    0.5904 H   0  0  0  0  0  0  0  0  0  0  0  0
   -7.3461   -1.3240    1.3489 H   0  0  0  0  0  0  0  0  0  0  0  0
   -5.1874   -1.9550    2.1129 H   0  0  0  0  0  0  0  0  0  0  0  0
   -3.5113   -2.9713    0.0562 H   0  0  0  0  0  0  0  0  0  0  0  0
   -2.8220   -2.3402    1.6466 H   0  0  0  0  0  0  0  0  0  0  0  0
   -1.8808   -1.2240   -0.3342 H   0  0  0  0  0  0  0  0  0  0  0  0
   -3.9545    0.5117    1.2025 H   0  0  0  0  0  0  0  0  0  0  0  0
   -2.3273    0.0864    1.8734 H   0  0  0  0  0  0  0  0  0  0  0  0
   -2.8893    2.2543    0.0095 H   0  0  0  0  0  0  0  0  0  0  0  0
   -0.4425   -0.2579    1.2289 H   0  0  0  0  0  0  0  0  0  0  0  0
    1.9353   -0.2560    0.7118 H   0  0  0  0  0  0  0  0  0  0  0  0
    3.8979   -0.1337    0.3006 H   0  0  0  0  0  0  0  0  0  0  0  0
    5.8225    1.4680   -1.4449 H   0  0  0  0  0  0  0  0  0  0  0  0
    6.0573    2.0281    0.8147 H   0  0  0  0  0  0  0  0  0  0  0  0
    7.4963    1.1671    0.2639 H   0  0  0  0  0  0  0  0  0  0  0  0
    6.9959    0.5715    2.4764 H   0  0  0  0  0  0  0  0  0  0  0  0
    5.2821    0.1745    2.1293 H   0  0  0  0  0  0  0  0  0  0  0  0
    8.3898   -2.4337    1.2128 H   0  0  0  0  0  0  0  0  0  0  0  0
    7.7956   -1.7034   -1.8510 H   0  0  0  0  0  0  0  0  0  0  0  0
    1.3833    3.1156   -1.7849 H   0  0  0  0  0  0  0  0  0  0  0  0
   -1.0647    3.1209   -1.2738 H   0  0  0  0  0  0  0  0  0  0  0  0
   -3.2664   -0.4808   -2.0688 H   0  0  0  0  0  0  0  0  0  0  0  0
  1  2  1  0
  2  3  2  0
  3  4  1  0
  4  5  2  0
  4  6  1  0
  6  7  2  0
  7  8  1  0
  7  9  1  0
  9 10  1  0
 10 11  1  0
 11 12  1  0
 12 13  1  0
 13 14  1  0
 14 15  2  0
 15 16  1  0
 16 17  2  0
 17 18  1  0
 18 19  2  0
 18 20  1  0
 20 21  1  0
 21 22  1  0
 22 23  1  0
 23 24  1  0
 24 25  2  0
 24 26  1  0
 21 27  1  0
 27 28  2  0
 27 29  1  0
 17 30  1  0
 30 31  2  0
 11 32  1  0
  8  2  1  0
 31 14  1  0
 32  6  1  0
  1 33  1  0
  1 34  1  0
  8 35  1  0
  9 36  1  0
 10 37  1  0
 10 38  1  0
 11 39  1  6
 12 40  1  0
 12 41  1  0
 13 42  1  0
 15 43  1  0
 16 44  1  0
 20 45  1  0
 21 46  1  6
 22 47  1  0
 22 48  1  0
 23 49  1  0
 23 50  1  0
 26 51  1  0
 29 52  1  0
 30 53  1  0
 31 54  1  0
 32 55  1  0
M  END
$$$$

     RDKit          3D

 55 57  0  0  0  0  0  0  0  0999 V2000
    9.5229    0.5135    0.6736 N   0  0  0  0  0  0  0  0  0  0  0  0
    8.0848    0.4893    0.6009 C   0  0  0  0  0  0  0  0  0  0  0  0
    7.3649    1.6240    0.6017 N   0  0  0  0  0  0  0  0  0  0  0  0
    6.0373    1.6801    0.5375 C   0  0  0  0  0  0  0  0  0  0  0  0
    5.3591    2.7468    0.5385 O   0  0  0  0  0  0  0  0  0  0  0  0
    5.3299    0.4974    0.4642 C   0  0  0  0  0  0  0  0  0  0  0  0
    6.0586   -0.6671    0.4627 C   0  0  0  0  0  0  0  0  0  0  0  0
    7.4227   -0.6769    0.5305 N   0  0  0  0  0  0  0  0  0  0  0  0
    5.3289   -1.8883    0.3840 N   0  0  0  0  0  0  0  0  0  0  0  0
    4.1010   -1.9013   -0.3632 C   0  0  0  0  0  0  0  0  0  0  0  0
    3.2595   -0.6761   -0.2326 C   0  0  2  0  0  0  0  0  0  0  0  0
    2.9531   -0.1939   -1.6620 C   0  0  0  0  0  0  0  0  0  0  0  0
    2.1295    0.9870   -1.5375 N   0  0  0  0  0  0  0  0  0  0  0  0
    0.7756    0.9253   -1.0812 C   0  0  0  0  0  0  0  0  0  0  0  0
    0.1317    2.0784   -0.6987 C   0  0  0  0  0  0  0  0  0  0  0  0
   -1.1736    2.0561   -0.2780 C   0  0  0  0  0  0  0  0  0  0  0  0
   -1.8845    0.8701   -0.2251 C   0  0  0  0  0  0  0  0  0  0  0  0
   -3.2555    0.8621    0.2209 C   0  0  0  0  0  0  0  0  0  0  0  0
   -3.7658    1.9476    0.6572 O   0  0  0  0  0  0  0  0  0  0  0  0
   -4.0866   -0.2870    0.2067 N   0  0  0  0  0  0  0  0  0  0  0  0
   -5.4920   -0.2428    0.6775 C   0  0  1  0  0  0  0  0  0  0  0  0
   -6.3413   -0.7015   -0.4633 C   0  0  0  0  0  0  0  0  0  0  0  0
   -7.7876   -0.7053   -0.1174 C   0  0  0  0  0  0  0  0  0  0  0  0
   -8.2573    0.6459    0.2159 C   0  0  0  0  0  0  0  0  0  0  0  0
   -7.5156    1.6386    0.1172 O   0  0  0  0  0  0  0  0  0  0  0  0
   -9.5798    0.8590    0.6633 O   0  0  0  0  0  0  0  0  0  0  0  0
   -5.5934   -1.0889    1.8912 C   0  0  0  0  0  0  0  0  0  0  0  0
   -4.5536   -1.7040    2.3078 O   0  0  0  0  0  0  0  0  0  0  0  0
   -6.7372   -1.2771    2.6323 O   0  0  0  0  0  0  0  0  0  0  0  0
   -1.2160   -0.2651   -0.6129 C   0  0  0  0  0  0  0  0  0  0  0  0
    0.0895   -0.2869   -1.0406 C   0  0  0  0  0  0  0  0  0  0  0  0
    3.9223    0.4462    0.3978 N   0  0  0  0  0  0  0  0  0  0  0  0
   10.0787   -0.1643    0.1131 H   0  0  0  0  0  0  0  0  0  0  0  0
   10.0438    1.1902    1.2722 H   0  0  0  0  0  0  0  0  0  0  0  0
    7.9214   -1.5984    0.5273 H   0  0  0  0  0  0  0  0  0  0  0  0
    5.7199   -2.7448    0.8771 H   0  0  0  0  0  0  0  0  0  0  0  0
    4.3345   -2.1463   -1.4370 H   0  0  0  0  0  0  0  0  0  0  0  0
    3.4570   -2.7701   -0.0421 H   0  0  0  0  0  0  0  0  0  0  0  0
    2.2697   -0.8786    0.2348 H   0  0  0  0  0  0  0  0  0  0  0  0
    3.9104    0.1030   -2.1270 H   0  0  0  0  0  0  0  0  0  0  0  0
    2.4486   -1.0028   -2.2379 H   0  0  0  0  0  0  0  0  0  0  0  0
    2.5033    1.9304   -1.7805 H   0  0  0  0  0  0  0  0  0  0  0  0
    0.6651    3.0281   -0.7286 H   0  0  0  0  0  0  0  0  0  0  0  0
   -1.6226    3.0007    0.0098 H   0  0  0  0  0  0  0  0  0  0  0  0
   -3.6818   -1.1758   -0.1476 H   0  0  0  0  0  0  0  0  0  0  0  0
   -5.6433    0.7967    0.9972 H   0  0  0  0  0  0  0  0  0  0  0  0
   -6.1838    0.0203   -1.3221 H   0  0  0  0  0  0  0  0  0  0  0  0
   -5.9948   -1.6807   -0.8782 H   0  0  0  0  0  0  0  0  0  0  0  0
   -8.3383   -1.1093   -1.0270 H   0  0  0  0  0  0  0  0  0  0  0  0
   -7.9612   -1.4271    0.7111 H   0  0  0  0  0  0  0  0  0  0  0  0
   -9.7819    1.7691    1.0430 H   0  0  0  0  0  0  0  0  0  0  0  0
   -7.0101   -2.1938    2.9717 H   0  0  0  0  0  0  0  0  0  0  0  0
   -1.7175   -1.2519   -0.5985 H   0  0  0  0  0  0  0  0  0  0  0  0
    0.5821   -1.2089   -1.3490 H   0  0  0  0  0  0  0  0  0  0  0  0
    3.3694    1.2090    0.7968 H   0  0  0  0  0  0  0  0  0  0  0  0
  1  2  1  0
  2  3  2  0
  3  4  1  0
  4  5  2  0
  4  6  1  0
  6  7  2  0
  7  8  1  0
  7  9  1  0
  9 10  1  0
 10 11  1  0
 11 12  1  0
 12 13  1  0
 13 14  1  0
 14 15  2  0
 15 16  1  0
 16 17  2  0
 17 18  1  0
 18 19  2  0
 18 20  1  0
 20 21  1  0
 21 22  1  0
 22 23  1  0
 23 24  1  0
 24 25  2  0
 24 26  1  0
 21 27  1  0
 27 28  2  0
 27 29  1  0
 17 30  1  0
 30 31  2  0
 11 32  1  0
  8  2  1  0
 31 14  1  0
 32  6  1  0
  1 33  1  0
  1 34  1  0
  8 35  1  0
  9 36  1  0
 10 37  1  0
 10 38  1  0
 11 39  1  1
 12 40  1  0
 12 41  1  0
 13 42  1  0
 15 43  1  0
 16 44  1  0
 20 45  1  0
 21 46  1  1
 22 47  1  0
 22 48  1  0
 23 49  1  0
 23 50  1  0
 26 51  1  0
 29 52  1  0
 30 53  1  0
 31 54  1  0
 32 55  1  0
M  END
$$$$

     RDKit          3D

 55 57  0  0  0  0  0  0  0  0999 V2000
    9.7643   -1.5083   -0.5359 N   0  0  0  0  0  0  0  0  0  0  0  0
    8.4105   -1.0453   -0.5765 C   0  0  0  0  0  0  0  0  0  0  0  0
    7.6770   -1.0898   -1.6976 N   0  0  0  0  0  0  0  0  0  0  0  0
    6.4015   -0.6411   -1.6847 C   0  0  0  0  0  0  0  0  0  0  0  0
    5.6895   -0.6757   -2.7413 O   0  0  0  0  0  0  0  0  0  0  0  0
    5.7980   -0.1289   -0.5582 C   0  0  0  0  0  0  0  0  0  0  0  0
    6.5862   -0.0978    0.5835 C   0  0  0  0  0  0  0  0  0  0  0  0
    7.8531   -0.5488    0.5498 N   0  0  0  0  0  0  0  0  0  0  0  0
    5.9726    0.4261    1.7622 N   0  0  0  0  0  0  0  0  0  0  0  0
    4.5128    0.4480    1.8450 C   0  0  0  0  0  0  0  0  0  0  0  0
    4.0591    1.1943    0.5921 C   0  0  2  0  0  0  0  0  0  0  0  0
    2.5880    1.4118    0.5726 C   0  0  0  0  0  0  0  0  0  0  0  0
    1.8965    0.1458    0.5944 N   0  0  0  0  0  0  0  0  0  0  0  0
    0.4574    0.1109    0.6789 C   0  0  0  0  0  0  0  0  0  0  0  0
   -0.2331   -1.0624    0.4825 C   0  0  0  0  0  0  0  0  0  0  0  0
   -1.6195   -1.1091    0.5845 C   0  0  0  0  0  0  0  0  0  0  0  0
   -2.3604    0.0156    0.8872 C   0  0  0  0  0  0  0  0  0  0  0  0
   -3.8067    0.0160    1.0038 C   0  0  0  0  0  0  0  0  0  0  0  0
   -4.3423    0.5202    2.0494 O   0  0  0  0  0  0  0  0  0  0  0  0
   -4.7122   -0.5009    0.0410 N   0  0  0  0  0  0  0  0  0  0  0  0
   -6.1466   -0.4648    0.2447 C   0  0  1  0  0  0  0  0  0  0  0  0
   -6.8196    0.6817   -0.4284 C   0  0  0  0  0  0  0  0  0  0  0  0
   -6.7114    0.7759   -1.8992 C   0  0  0  0  0  0  0  0  0  0  0  0
   -7.2875   -0.3857   -2.6032 C   0  0  0  0  0  0  0  0  0  0  0  0
   -6.5534   -1.2189   -3.1592 O   0  0  0  0  0  0  0  0  0  0  0  0
   -8.6614   -0.5362   -2.6346 O   0  0  0  0  0  0  0  0  0  0  0  0
   -6.7532   -1.7743    0.0107 C   0  0  0  0  0  0  0  0  0  0  0  0
   -6.1125   -2.8143   -0.2990 O   0  0  0  0  0  0  0  0  0  0  0  0
   -8.1275   -1.9190    0.1271 O   0  0  0  0  0  0  0  0  0  0  0  0
   -1.6512    1.1864    1.0818 C   0  0  0  0  0  0  0  0  0  0  0  0
   -0.2566    1.2488    0.9816 C   0  0  0  0  0  0  0  0  0  0  0  0
    4.4511    0.3532   -0.5249 N   0  0  0  0  0  0  0  0  0  0  0  0
   10.3667   -1.2974    0.2865 H   0  0  0  0  0  0  0  0  0  0  0  0
   10.1940   -2.0636   -1.3031 H   0  0  0  0  0  0  0  0  0  0  0  0
    8.4267   -0.5099    1.4387 H   0  0  0  0  0  0  0  0  0  0  0  0
    6.5800    0.7738    2.5230 H   0  0  0  0  0  0  0  0  0  0  0  0
    4.0973   -0.5765    1.7672 H   0  0  0  0  0  0  0  0  0  0  0  0
    4.2014    0.9199    2.7728 H   0  0  0  0  0  0  0  0  0  0  0  0
    4.6379    2.1414    0.5349 H   0  0  0  0  0  0  0  0  0  0  0  0
    2.3262    2.0398    1.4738 H   0  0  0  0  0  0  0  0  0  0  0  0
    2.2626    2.0257   -0.3065 H   0  0  0  0  0  0  0  0  0  0  0  0
    2.4563   -0.7250    0.5511 H   0  0  0  0  0  0  0  0  0  0  0  0
    0.3521   -1.9472    0.2466 H   0  0  0  0  0  0  0  0  0  0  0  0
   -2.1371   -2.0632    0.4192 H   0  0  0  0  0  0  0  0  0  0  0  0
   -4.2777   -0.9136   -0.8271 H   0  0  0  0  0  0  0  0  0  0  0  0
   -6.2747   -0.2540    1.3554 H   0  0  0  0  0  0  0  0  0  0  0  0
   -6.3833    1.6210    0.0033 H   0  0  0  0  0  0  0  0  0  0  0  0
   -7.9192    0.6809   -0.1758 H   0  0  0  0  0  0  0  0  0  0  0  0
   -7.3450    1.6579   -2.2157 H   0  0  0  0  0  0  0  0  0  0  0  0
   -5.6884    1.0262   -2.2641 H   0  0  0  0  0  0  0  0  0  0  0  0
   -9.0933   -1.3432   -3.0812 H   0  0  0  0  0  0  0  0  0  0  0  0
   -8.5817   -2.8293    0.3020 H   0  0  0  0  0  0  0  0  0  0  0  0
   -2.2416    2.0792    1.3195 H   0  0  0  0  0  0  0  0  0  0  0  0
    0.2691    2.1732    1.1357 H   0  0  0  0  0  0  0  0  0  0  0  0
    3.8095    0.0895   -1.2863 H   0  0  0  0  0  0  0  0  0  0  0  0
  1  2  1  0
  2  3  2  0
  3  4  1  0
  4  5  2  0
  4  6  1  0
  6  7  2  0
  7  8  1  0
  7  9  1  0
  9 10  1  0
 10 11  1  0
 11 12  1  0
 12 13  1  0
 13 14  1  0
 14 15  2  0
 15 16  1  0
 16 17  2  0
 17 18  1  0
 18 19  2  0
 18 20  1  0
 20 21  1  0
 21 22  1  0
 22 23  1  0
 23 24  1  0
 24 25  2  0
 24 26  1  0
 21 27  1  0
 27 28  2  0
 27 29  1  0
 17 30  1  0
 30 31  2  0
 11 32  1  0
  8  2  1  0
 31 14  1  0
 32  6  1  0
  1 33  1  0
  1 34  1  0
  8 35  1  0
  9 36  1  0
 10 37  1  0
 10 38  1  0
 11 39  1  6
 12 40  1  0
 12 41  1  0
 13 42  1  0
 15 43  1  0
 16 44  1  0
 20 45  1  0
 21 46  1  1
 22 47  1  0
 22 48  1  0
 23 49  1  0
 23 50  1  0
 26 51  1  0
 29 52  1  0
 30 53  1  0
 31 54  1  0
 32 55  1  0
M  END
$$$$

     RDKit          3D

 55 57  0  0  0  0  0  0  0  0999 V2000
   -8.8478   -1.8075   -1.1863 N   0  0  0  0  0  0  0  0  0  0  0  0
   -7.6812   -1.3538   -0.4976 C   0  0  0  0  0  0  0  0  0  0  0  0
   -7.0260   -2.1113    0.3694 N   0  0  0  0  0  0  0  0  0  0  0  0
   -5.9368   -1.7086    1.0205 C   0  0  0  0  0  0  0  0  0  0  0  0
   -5.2959   -2.4042    1.8468 O   0  0  0  0  0  0  0  0  0  0  0  0
   -5.4617   -0.4284    0.7772 C   0  0  0  0  0  0  0  0  0  0  0  0
   -6.1226    0.3835   -0.1196 C   0  0  0  0  0  0  0  0  0  0  0  0
   -7.2369   -0.1056   -0.7481 N   0  0  0  0  0  0  0  0  0  0  0  0
   -5.6392    1.6799   -0.3668 N   0  0  0  0  0  0  0  0  0  0  0  0
   -4.3340    2.0997    0.0556 C   0  0  0  0  0  0  0  0  0  0  0  0
   -3.7685    1.3708    1.2245 C   0  0  2  0  0  0  0  0  0  0  0  0
   -2.2754    1.2232    1.0524 C   0  0  0  0  0  0  0  0  0  0  0  0
   -2.0181    0.4801   -0.1739 N   0  0  0  0  0  0  0  0  0  0  0  0
   -0.6424    0.1943   -0.4618 C   0  0  0  0  0  0  0  0  0  0  0  0
    0.3857    0.5045    0.3954 C   0  0  0  0  0  0  0  0  0  0  0  0
    1.7115    0.2255    0.1220 C   0  0  0  0  0  0  0  0  0  0  0  0
    2.0302   -0.3859   -1.0503 C   0  0  0  0  0  0  0  0  0  0  0  0
    3.3998   -0.7172   -1.3679 C   0  0  0  0  0  0  0  0  0  0  0  0
    3.7222   -0.9656   -2.5563 O   0  0  0  0  0  0  0  0  0  0  0  0
    4.4059   -0.7701   -0.3519 N   0  0  0  0  0  0  0  0  0  0  0  0
    5.7899   -1.0942   -0.6257 C   0  0  1  0  0  0  0  0  0  0  0  0
    6.6352    0.1154   -0.2973 C   0  0  0  0  0  0  0  0  0  0  0  0
    6.4909    0.5236    1.1533 C   0  0  0  0  0  0  0  0  0  0  0  0
    7.3627    1.6940    1.3878 C   0  0  0  0  0  0  0  0  0  0  0  0
    8.5859    1.6381    1.1106 O   0  0  0  0  0  0  0  0  0  0  0  0
    6.8374    2.8545    1.9111 O   0  0  0  0  0  0  0  0  0  0  0  0
    6.2100   -2.3035    0.0892 C   0  0  0  0  0  0  0  0  0  0  0  0
    5.4188   -2.9122    0.8402 O   0  0  0  0  0  0  0  0  0  0  0  0
    7.4924   -2.7805   -0.0627 O   0  0  0  0  0  0  0  0  0  0  0  0
    1.0398   -0.7135   -1.9361 C   0  0  0  0  0  0  0  0  0  0  0  0
   -0.3017   -0.4315   -1.6588 C   0  0  0  0  0  0  0  0  0  0  0  0
   -4.3074    0.0504    1.4429 N   0  0  0  0  0  0  0  0  0  0  0  0
   -9.7793   -1.5111   -0.8360 H   0  0  0  0  0  0  0  0  0  0  0  0
   -8.7156   -2.4235   -2.0155 H   0  0  0  0  0  0  0  0  0  0  0  0
   -7.7047    0.5370   -1.4136 H   0  0  0  0  0  0  0  0  0  0  0  0
   -6.2640    2.3475   -0.8712 H   0  0  0  0  0  0  0  0  0  0  0  0
   -4.3412    3.1955    0.2928 H   0  0  0  0  0  0  0  0  0  0  0  0
   -3.6362    2.0092   -0.8091 H   0  0  0  0  0  0  0  0  0  0  0  0
   -3.9198    1.9621    2.1660 H   0  0  0  0  0  0  0  0  0  0  0  0
   -1.8265    0.6536    1.8890 H   0  0  0  0  0  0  0  0  0  0  0  0
   -1.7999    2.2273    0.9838 H   0  0  0  0  0  0  0  0  0  0  0  0
   -2.7544    0.1651   -0.8138 H   0  0  0  0  0  0  0  0  0  0  0  0
    0.1155    0.9994    1.3436 H   0  0  0  0  0  0  0  0  0  0  0  0
    2.4384    0.5068    0.8411 H   0  0  0  0  0  0  0  0  0  0  0  0
    4.1118   -0.5688    0.6240 H   0  0  0  0  0  0  0  0  0  0  0  0
    5.8525   -1.2245   -1.7482 H   0  0  0  0  0  0  0  0  0  0  0  0
    7.6940   -0.0351   -0.5724 H   0  0  0  0  0  0  0  0  0  0  0  0
    6.2527    0.9604   -0.9136 H   0  0  0  0  0  0  0  0  0  0  0  0
    5.4513    0.7894    1.4096 H   0  0  0  0  0  0  0  0  0  0  0  0
    6.8276   -0.2754    1.8455 H   0  0  0  0  0  0  0  0  0  0  0  0
    7.3121    3.7171    2.0345 H   0  0  0  0  0  0  0  0  0  0  0  0
    7.7746   -3.6284    0.4466 H   0  0  0  0  0  0  0  0  0  0  0  0
    1.2250   -1.2038   -2.8971 H   0  0  0  0  0  0  0  0  0  0  0  0
   -1.1105   -0.6751   -2.3326 H   0  0  0  0  0  0  0  0  0  0  0  0
   -3.8261   -0.5688    2.1158 H   0  0  0  0  0  0  0  0  0  0  0  0
  1  2  1  0
  2  3  2  0
  3  4  1  0
  4  5  2  0
  4  6  1  0
  6  7  2  0
  7  8  1  0
  7  9  1  0
  9 10  1  0
 10 11  1  0
 11 12  1  0
 12 13  1  0
 13 14  1  0
 14 15  2  0
 15 16  1  0
 16 17  2  0
 17 18  1  0
 18 19  2  0
 18 20  1  0
 20 21  1  0
 21 22  1  0
 22 23  1  0
 23 24  1  0
 24 25  2  0
 24 26  1  0
 21 27  1  0
 27 28  2  0
 27 29  1  0
 17 30  1  0
 30 31  2  0
 11 32  1  0
  8  2  1  0
 31 14  1  0
 32  6  1  0
  1 33  1  0
  1 34  1  0
  8 35  1  0
  9 36  1  0
 10 37  1  0
 10 38  1  0
 11 39  1  1
 12 40  1  0
 12 41  1  0
 13 42  1  0
 15 43  1  0
 16 44  1  0
 20 45  1  0
 21 46  1  6
 22 47  1  0
 22 48  1  0
 23 49  1  0
 23 50  1  0
 26 51  1  0
 29 52  1  0
 30 53  1  0
 31 54  1  0
 32 55  1  0
M  END
$$$$

     RDKit          3D

 55 57  0  0  0  0  0  0  0  0999 V2000
    9.5288    0.9768    0.3134 N   0  0  0  0  0  0  0  0  0  0  0  0
    8.2169    0.6054   -0.0995 C   0  0  0  0  0  0  0  0  0  0  0  0
    8.0175   -0.2238   -1.1561 N   0  0  0  0  0  0  0  0  0  0  0  0
    6.7900   -0.5822   -1.5564 C   0  0  0  0  0  0  0  0  0  0  0  0
    6.6382   -1.3583   -2.5469 O   0  0  0  0  0  0  0  0  0  0  0  0
    5.6680   -0.1145   -0.8998 C   0  0  0  0  0  0  0  0  0  0  0  0
    5.8824    0.7379    0.1867 C   0  0  0  0  0  0  0  0  0  0  0  0
    7.1116    1.0617    0.5420 N   0  0  0  0  0  0  0  0  0  0  0  0
    4.6879    1.1760    0.8268 N   0  0  0  0  0  0  0  0  0  0  0  0
    3.4855    0.4198    0.8472 C   0  0  0  0  0  0  0  0  0  0  0  0
    3.2534   -0.4008   -0.3596 C   0  0  2  0  0  0  0  0  0  0  0  0
    2.8781   -1.8336    0.0595 C   0  0  0  0  0  0  0  0  0  0  0  0
    1.6768   -1.7907    0.8479 N   0  0  0  0  0  0  0  0  0  0  0  0
    0.3919   -1.4330    0.3341 C   0  0  0  0  0  0  0  0  0  0  0  0
    0.1196   -1.3175   -0.9987 C   0  0  0  0  0  0  0  0  0  0  0  0
   -1.1415   -0.9462   -1.4504 C   0  0  0  0  0  0  0  0  0  0  0  0
   -2.1647   -0.6820   -0.5625 C   0  0  0  0  0  0  0  0  0  0  0  0
   -3.4953   -0.2712   -1.0640 C   0  0  0  0  0  0  0  0  0  0  0  0
   -3.5144    0.2529   -2.1950 O   0  0  0  0  0  0  0  0  0  0  0  0
   -4.6505   -0.4742   -0.2873 N   0  0  0  0  0  0  0  0  0  0  0  0
   -5.9906   -0.1505   -0.6277 C   0  0  1  0  0  0  0  0  0  0  0  0
   -6.3358    1.1803   -0.0607 C   0  0  0  0  0  0  0  0  0  0  0  0
   -6.2027    1.1580    1.4350 C   0  0  0  0  0  0  0  0  0  0  0  0
   -7.1005    0.2160    2.1201 C   0  0  0  0  0  0  0  0  0  0  0  0
   -7.9684   -0.4659    1.5407 O   0  0  0  0  0  0  0  0  0  0  0  0
   -7.0218    0.0318    3.5073 O   0  0  0  0  0  0  0  0  0  0  0  0
   -6.3110   -0.3111   -2.0484 C   0  0  0  0  0  0  0  0  0  0  0  0
   -5.5426   -0.8099   -2.8669 O   0  0  0  0  0  0  0  0  0  0  0  0
   -7.5603    0.1155   -2.5562 O   0  0  0  0  0  0  0  0  0  0  0  0
   -1.8905   -0.7993    0.7733 C   0  0  0  0  0  0  0  0  0  0  0  0
   -0.6194   -1.1728    1.2252 C   0  0  0  0  0  0  0  0  0  0  0  0
    4.3454   -0.4326   -1.2668 N   0  0  0  0  0  0  0  0  0  0  0  0
   10.2342    1.3552   -0.3662 H   0  0  0  0  0  0  0  0  0  0  0  0
    9.7839    0.8693    1.3012 H   0  0  0  0  0  0  0  0  0  0  0  0
    7.2353    1.7150    1.3730 H   0  0  0  0  0  0  0  0  0  0  0  0
    4.7541    2.1215    1.3036 H   0  0  0  0  0  0  0  0  0  0  0  0
    3.5416   -0.2568    1.7506 H   0  0  0  0  0  0  0  0  0  0  0  0
    2.6454    1.1677    1.0128 H   0  0  0  0  0  0  0  0  0  0  0  0
    2.3468    0.0235   -0.8838 H   0  0  0  0  0  0  0  0  0  0  0  0
    3.7177   -2.1864    0.6765 H   0  0  0  0  0  0  0  0  0  0  0  0
    2.7684   -2.4594   -0.8516 H   0  0  0  0  0  0  0  0  0  0  0  0
    1.7786   -2.0477    1.8792 H   0  0  0  0  0  0  0  0  0  0  0  0
    0.8615   -1.5218   -1.7558 H   0  0  0  0  0  0  0  0  0  0  0  0
   -1.3669   -0.8511   -2.5070 H   0  0  0  0  0  0  0  0  0  0  0  0
   -4.4558   -0.9305    0.6685 H   0  0  0  0  0  0  0  0  0  0  0  0
   -6.6050   -1.0107   -0.1580 H   0  0  0  0  0  0  0  0  0  0  0  0
   -5.5524    1.9117   -0.4192 H   0  0  0  0  0  0  0  0  0  0  0  0
   -7.3441    1.5448   -0.3806 H   0  0  0  0  0  0  0  0  0  0  0  0
   -5.1553    0.8423    1.7145 H   0  0  0  0  0  0  0  0  0  0  0  0
   -6.3242    2.2021    1.8249 H   0  0  0  0  0  0  0  0  0  0  0  0
   -7.4698   -0.7583    3.9407 H   0  0  0  0  0  0  0  0  0  0  0  0
   -7.6931    0.1747   -3.5562 H   0  0  0  0  0  0  0  0  0  0  0  0
   -2.6705   -0.5961    1.4866 H   0  0  0  0  0  0  0  0  0  0  0  0
   -0.4309   -1.2577    2.2787 H   0  0  0  0  0  0  0  0  0  0  0  0
    4.2186   -0.7045   -2.2888 H   0  0  0  0  0  0  0  0  0  0  0  0
  1  2  1  0
  2  3  2  0
  3  4  1  0
  4  5  2  0
  4  6  1  0
  6  7  2  0
  7  8  1  0
  7  9  1  0
  9 10  1  0
 10 11  1  0
 11 12  1  0
 12 13  1  0
 13 14  1  0
 14 15  2  0
 15 16  1  0
 16 17  2  0
 17 18  1  0
 18 19  2  0
 18 20  1  0
 20 21  1  0
 21 22  1  0
 22 23  1  0
 23 24  1  0
 24 25  2  0
 24 26  1  0
 21 27  1  0
 27 28  2  0
 27 29  1  0
 17 30  1  0
 30 31  2  0
 11 32  1  0
  8  2  1  0
 31 14  1  0
 32  6  1  0
  1 33  1  0
  1 34  1  0
  8 35  1  0
  9 36  1  0
 10 37  1  0
 10 38  1  0
 11 39  1  6
 12 40  1  0
 12 41  1  0
 13 42  1  0
 15 43  1  0
 16 44  1  0
 20 45  1  0
 21 46  1  1
 22 47  1  0
 22 48  1  0
 23 49  1  0
 23 50  1  0
 26 51  1  0
 29 52  1  0
 30 53  1  0
 31 54  1  0
 32 55  1  0
M  END
$$$$

     RDKit          3D

 55 57  0  0  0  0  0  0  0  0999 V2000
   -9.1874   -0.7873   -0.7768 N   0  0  0  0  0  0  0  0  0  0  0  0
   -7.7991   -0.9557   -0.5441 C   0  0  0  0  0  0  0  0  0  0  0  0
   -7.1567   -1.9082   -1.2444 N   0  0  0  0  0  0  0  0  0  0  0  0
   -5.8391   -2.0793   -1.0355 C   0  0  0  0  0  0  0  0  0  0  0  0
   -5.1635   -2.9504   -1.6513 O   0  0  0  0  0  0  0  0  0  0  0  0
   -5.1540   -1.2889   -0.1152 C   0  0  0  0  0  0  0  0  0  0  0  0
   -5.8519   -0.3272    0.5781 C   0  0  0  0  0  0  0  0  0  0  0  0
   -7.1613   -0.1752    0.3538 N   0  0  0  0  0  0  0  0  0  0  0  0
   -5.1317    0.4665    1.5098 N   0  0  0  0  0  0  0  0  0  0  0  0
   -3.7647    0.1474    1.8652 C   0  0  0  0  0  0  0  0  0  0  0  0
   -3.0246   -0.3279    0.6519 C   0  0  2  0  0  0  0  0  0  0  0  0
   -3.1256    0.7466   -0.4249 C   0  0  0  0  0  0  0  0  0  0  0  0
   -2.4035    0.2800   -1.5767 N   0  0  0  0  0  0  0  0  0  0  0  0
   -0.9765    0.1737   -1.4968 C   0  0  0  0  0  0  0  0  0  0  0  0
   -0.3128    0.7827   -0.4645 C   0  0  0  0  0  0  0  0  0  0  0  0
    1.0394    0.6775   -0.3640 C   0  0  0  0  0  0  0  0  0  0  0  0
    1.7748   -0.0332   -1.2823 C   0  0  0  0  0  0  0  0  0  0  0  0
    3.2188   -0.1681   -1.1910 C   0  0  0  0  0  0  0  0  0  0  0  0
    3.8520   -0.6648   -2.1780 O   0  0  0  0  0  0  0  0  0  0  0  0
    3.9686    0.2208   -0.0645 N   0  0  0  0  0  0  0  0  0  0  0  0
    5.4481    0.0607   -0.0223 C   0  0  1  0  0  0  0  0  0  0  0  0
    5.9643    1.4673   -0.0617 C   0  0  0  0  0  0  0  0  0  0  0  0
    7.4234    1.6646    0.0354 C   0  0  0  0  0  0  0  0  0  0  0  0
    7.9062    1.3137    1.3907 C   0  0  0  0  0  0  0  0  0  0  0  0
    7.1179    1.1903    2.3933 O   0  0  0  0  0  0  0  0  0  0  0  0
    9.2567    1.0937    1.6676 O   0  0  0  0  0  0  0  0  0  0  0  0
    5.9060   -0.8359    1.0003 C   0  0  0  0  0  0  0  0  0  0  0  0
    5.1437   -1.2153    1.9277 O   0  0  0  0  0  0  0  0  0  0  0  0
    7.2250   -1.3214    0.9843 O   0  0  0  0  0  0  0  0  0  0  0  0
    1.0991   -0.6594   -2.3437 C   0  0  0  0  0  0  0  0  0  0  0  0
   -0.2632   -0.5435   -2.4299 C   0  0  0  0  0  0  0  0  0  0  0  0
   -3.7481   -1.4811    0.0982 N   0  0  0  0  0  0  0  0  0  0  0  0
   -9.8447   -1.4402   -0.3083 H   0  0  0  0  0  0  0  0  0  0  0  0
   -9.4998   -0.0282   -1.3987 H   0  0  0  0  0  0  0  0  0  0  0  0
   -7.7240    0.5621    0.8775 H   0  0  0  0  0  0  0  0  0  0  0  0
   -5.6274    1.2983    1.9354 H   0  0  0  0  0  0  0  0  0  0  0  0
   -3.7566   -0.6398    2.6483 H   0  0  0  0  0  0  0  0  0  0  0  0
   -3.2649    1.0873    2.2029 H   0  0  0  0  0  0  0  0  0  0  0  0
   -1.9798   -0.5657    0.8349 H   0  0  0  0  0  0  0  0  0  0  0  0
   -4.1828    0.8948   -0.7414 H   0  0  0  0  0  0  0  0  0  0  0  0
   -2.7732    1.7308   -0.0562 H   0  0  0  0  0  0  0  0  0  0  0  0
   -2.8556    0.0186   -2.4535 H   0  0  0  0  0  0  0  0  0  0  0  0
   -0.8049    1.3770    0.3045 H   0  0  0  0  0  0  0  0  0  0  0  0
    1.5636    1.1575    0.4462 H   0  0  0  0  0  0  0  0  0  0  0  0
    3.4703    0.6259    0.7516 H   0  0  0  0  0  0  0  0  0  0  0  0
    5.7458   -0.3661   -1.0529 H   0  0  0  0  0  0  0  0  0  0  0  0
    5.4104    2.0448    0.7249 H   0  0  0  0  0  0  0  0  0  0  0  0
    5.6412    1.9004   -1.0637 H   0  0  0  0  0  0  0  0  0  0  0  0
    7.9728    1.0964   -0.7551 H   0  0  0  0  0  0  0  0  0  0  0  0
    7.6887    2.7461   -0.1278 H   0  0  0  0  0  0  0  0  0  0  0  0
    9.5250    0.5426    2.4716 H   0  0  0  0  0  0  0  0  0  0  0  0
    7.5379   -1.9768    1.6832 H   0  0  0  0  0  0  0  0  0  0  0  0
    1.6298   -1.2302   -3.0940 H   0  0  0  0  0  0  0  0  0  0  0  0
   -0.8300   -1.0191   -3.2462 H   0  0  0  0  0  0  0  0  0  0  0  0
   -3.3218   -2.3793   -0.1356 H   0  0  0  0  0  0  0  0  0  0  0  0
  1  2  1  0
  2  3  2  0
  3  4  1  0
  4  5  2  0
  4  6  1  0
  6  7  2  0
  7  8  1  0
  7  9  1  0
  9 10  1  0
 10 11  1  0
 11 12  1  0
 12 13  1  0
 13 14  1  0
 14 15  2  0
 15 16  1  0
 16 17  2  0
 17 18  1  0
 18 19  2  0
 18 20  1  0
 20 21  1  0
 21 22  1  0
 22 23  1  0
 23 24  1  0
 24 25  2  0
 24 26  1  0
 21 27  1  0
 27 28  2  0
 27 29  1  0
 17 30  1  0
 30 31  2  0
 11 32  1  0
  8  2  1  0
 31 14  1  0
 32  6  1  0
  1 33  1  0
  1 34  1  0
  8 35  1  0
  9 36  1  0
 10 37  1  0
 10 38  1  0
 11 39  1  1
 12 40  1  0
 12 41  1  0
 13 42  1  0
 15 43  1  0
 16 44  1  0
 20 45  1  0
 21 46  1  6
 22 47  1  0
 22 48  1  0
 23 49  1  0
 23 50  1  0
 26 51  1  0
 29 52  1  0
 30 53  1  0
 31 54  1  0
 32 55  1  0
M  END
$$$$

     RDKit          3D

 55 57  0  0  0  0  0  0  0  0999 V2000
    9.1617    1.7751   -0.3587 N   0  0  0  0  0  0  0  0  0  0  0  0
    8.0132    0.9414   -0.2631 C   0  0  0  0  0  0  0  0  0  0  0  0
    8.0248   -0.1366    0.5596 N   0  0  0  0  0  0  0  0  0  0  0  0
    6.9818   -0.9579    0.6951 C   0  0  0  0  0  0  0  0  0  0  0  0
    7.0064   -1.9705    1.4743 O   0  0  0  0  0  0  0  0  0  0  0  0
    5.8449   -0.6755   -0.0499 C   0  0  0  0  0  0  0  0  0  0  0  0
    5.7985    0.4168   -0.8997 C   0  0  0  0  0  0  0  0  0  0  0  0
    6.8915    1.1807   -0.9683 N   0  0  0  0  0  0  0  0  0  0  0  0
    4.6068    0.6826   -1.6577 N   0  0  0  0  0  0  0  0  0  0  0  0
    3.6821   -0.4256   -1.7924 C   0  0  0  0  0  0  0  0  0  0  0  0
    3.4211   -0.9567   -0.3816 C   0  0  2  0  0  0  0  0  0  0  0  0
    3.0955    0.1559    0.5628 C   0  0  0  0  0  0  0  0  0  0  0  0
    1.9353    0.9210    0.2189 N   0  0  0  0  0  0  0  0  0  0  0  0
    0.6112    0.3762    0.2593 C   0  0  0  0  0  0  0  0  0  0  0  0
    0.3681   -0.8416    0.8539 C   0  0  0  0  0  0  0  0  0  0  0  0
   -0.9207   -1.3598    0.8714 C   0  0  0  0  0  0  0  0  0  0  0  0
   -1.9831   -0.6920    0.3083 C   0  0  0  0  0  0  0  0  0  0  0  0
   -3.3161   -1.2671    0.3471 C   0  0  0  0  0  0  0  0  0  0  0  0
   -3.5328   -2.3911    0.9009 O   0  0  0  0  0  0  0  0  0  0  0  0
   -4.4690   -0.6521   -0.2103 N   0  0  0  0  0  0  0  0  0  0  0  0
   -5.7813   -1.2446   -0.1580 C   0  0  1  0  0  0  0  0  0  0  0  0
   -6.6176   -0.4384    0.8166 C   0  0  0  0  0  0  0  0  0  0  0  0
   -6.6874    0.9810    0.3049 C   0  0  0  0  0  0  0  0  0  0  0  0
   -7.5094    1.8166    1.2241 C   0  0  0  0  0  0  0  0  0  0  0  0
   -8.0111    1.2859    2.2402 O   0  0  0  0  0  0  0  0  0  0  0  0
   -7.6950    3.1604    0.9264 O   0  0  0  0  0  0  0  0  0  0  0  0
   -6.4145   -1.3755   -1.4686 C   0  0  0  0  0  0  0  0  0  0  0  0
   -5.8243   -0.9923   -2.4986 O   0  0  0  0  0  0  0  0  0  0  0  0
   -7.6727   -1.9247   -1.5802 O   0  0  0  0  0  0  0  0  0  0  0  0
   -1.7124    0.5159   -0.2751 C   0  0  0  0  0  0  0  0  0  0  0  0
   -0.4439    1.0605   -0.3108 C   0  0  0  0  0  0  0  0  0  0  0  0
    4.7057   -1.5189    0.0575 N   0  0  0  0  0  0  0  0  0  0  0  0
    9.8939    1.6204   -1.0851 H   0  0  0  0  0  0  0  0  0  0  0  0
    9.3116    2.5735    0.2977 H   0  0  0  0  0  0  0  0  0  0  0  0
    6.8548    2.0050   -1.6104 H   0  0  0  0  0  0  0  0  0  0  0  0
    4.4795    1.6191   -2.0520 H   0  0  0  0  0  0  0  0  0  0  0  0
    4.1581   -1.2520   -2.3532 H   0  0  0  0  0  0  0  0  0  0  0  0
    2.7388   -0.1280   -2.2907 H   0  0  0  0  0  0  0  0  0  0  0  0
    2.6625   -1.7337   -0.4601 H   0  0  0  0  0  0  0  0  0  0  0  0
    3.9801    0.8155    0.7498 H   0  0  0  0  0  0  0  0  0  0  0  0
    2.9088   -0.3383    1.5639 H   0  0  0  0  0  0  0  0  0  0  0  0
    2.0482    1.9155   -0.0740 H   0  0  0  0  0  0  0  0  0  0  0  0
    1.1885   -1.4076    1.3274 H   0  0  0  0  0  0  0  0  0  0  0  0
   -1.0460   -2.3210    1.3536 H   0  0  0  0  0  0  0  0  0  0  0  0
   -4.3851    0.2630   -0.6858 H   0  0  0  0  0  0  0  0  0  0  0  0
   -5.6490   -2.2488    0.3355 H   0  0  0  0  0  0  0  0  0  0  0  0
   -7.6451   -0.8125    0.8957 H   0  0  0  0  0  0  0  0  0  0  0  0
   -6.0941   -0.4286    1.7981 H   0  0  0  0  0  0  0  0  0  0  0  0
   -5.6738    1.4713    0.2635 H   0  0  0  0  0  0  0  0  0  0  0  0
   -7.1213    1.0314   -0.7067 H   0  0  0  0  0  0  0  0  0  0  0  0
   -8.1688    3.7799    1.5675 H   0  0  0  0  0  0  0  0  0  0  0  0
   -7.9594   -2.4547   -2.4147 H   0  0  0  0  0  0  0  0  0  0  0  0
   -2.5521    1.0652   -0.7312 H   0  0  0  0  0  0  0  0  0  0  0  0
   -0.2656    2.0012   -0.7716 H   0  0  0  0  0  0  0  0  0  0  0  0
    4.7782   -2.4846    0.4280 H   0  0  0  0  0  0  0  0  0  0  0  0
  1  2  1  0
  2  3  2  0
  3  4  1  0
  4  5  2  0
  4  6  1  0
  6  7  2  0
  7  8  1  0
  7  9  1  0
  9 10  1  0
 10 11  1  0
 11 12  1  0
 12 13  1  0
 13 14  1  0
 14 15  2  0
 15 16  1  0
 16 17  2  0
 17 18  1  0
 18 19  2  0
 18 20  1  0
 20 21  1  0
 21 22  1  0
 22 23  1  0
 23 24  1  0
 24 25  2  0
 24 26  1  0
 21 27  1  0
 27 28  2  0
 27 29  1  0
 17 30  1  0
 30 31  2  0
 11 32  1  0
  8  2  1  0
 31 14  1  0
 32  6  1  0
  1 33  1  0
  1 34  1  0
  8 35  1  0
  9 36  1  0
 10 37  1  0
 10 38  1  0
 11 39  1  6
 12 40  1  0
 12 41  1  0
 13 42  1  0
 15 43  1  0
 16 44  1  0
 20 45  1  0
 21 46  1  1
 22 47  1  0
 22 48  1  0
 23 49  1  0
 23 50  1  0
 26 51  1  0
 29 52  1  0
 30 53  1  0
 31 54  1  0
 32 55  1  0
M  END
$$$$

     RDKit          3D

 55 57  0  0  0  0  0  0  0  0999 V2000
    9.2510   -0.0385   -0.3062 N   0  0  0  0  0  0  0  0  0  0  0  0
    7.8802   -0.0580    0.0807 C   0  0  0  0  0  0  0  0  0  0  0  0
    7.2909    1.0991    0.4324 N   0  0  0  0  0  0  0  0  0  0  0  0
    6.0173    1.1747    0.8066 C   0  0  0  0  0  0  0  0  0  0  0  0
    5.4165    2.2067    1.1421 O   0  0  0  0  0  0  0  0  0  0  0  0
    5.3041   -0.0303    0.8176 C   0  0  0  0  0  0  0  0  0  0  0  0
    5.8954   -1.2215    0.4601 C   0  0  0  0  0  0  0  0  0  0  0  0
    7.1889   -1.2260    0.0914 N   0  0  0  0  0  0  0  0  0  0  0  0
    5.1467   -2.4335    0.4803 N   0  0  0  0  0  0  0  0  0  0  0  0
    3.7871   -2.4796    0.9925 C   0  0  0  0  0  0  0  0  0  0  0  0
    3.1109   -1.1376    0.7192 C   0  0  2  0  0  0  0  0  0  0  0  0
    3.0662   -0.9955   -0.7991 C   0  0  0  0  0  0  0  0  0  0  0  0
    2.4495    0.2382   -1.2230 N   0  0  0  0  0  0  0  0  0  0  0  0
    1.0743    0.5299   -1.0238 C   0  0  0  0  0  0  0  0  0  0  0  0
    0.1749   -0.4171   -0.6070 C   0  0  0  0  0  0  0  0  0  0  0  0
   -1.1581   -0.1067   -0.4074 C   0  0  0  0  0  0  0  0  0  0  0  0
   -1.6663    1.1521   -0.6099 C   0  0  0  0  0  0  0  0  0  0  0  0
   -3.0668    1.5018   -0.4038 C   0  0  0  0  0  0  0  0  0  0  0  0
   -3.4829    2.6734   -0.6933 O   0  0  0  0  0  0  0  0  0  0  0  0
   -4.0081    0.5977    0.1092 N   0  0  0  0  0  0  0  0  0  0  0  0
   -5.4289    0.9639    0.3129 C   0  0  1  0  0  0  0  0  0  0  0  0
   -6.3145    0.0780   -0.4841 C   0  0  0  0  0  0  0  0  0  0  0  0
   -7.7710    0.3748   -0.3448 C   0  0  0  0  0  0  0  0  0  0  0  0
   -8.5848   -0.5380   -1.1840 C   0  0  0  0  0  0  0  0  0  0  0  0
   -8.8176   -1.6981   -0.7986 O   0  0  0  0  0  0  0  0  0  0  0  0
   -9.0818   -0.0991   -2.3898 O   0  0  0  0  0  0  0  0  0  0  0  0
   -5.6720    1.0032    1.7565 C   0  0  0  0  0  0  0  0  0  0  0  0
   -4.7849    0.7148    2.6232 O   0  0  0  0  0  0  0  0  0  0  0  0
   -6.9082    1.3674    2.2429 O   0  0  0  0  0  0  0  0  0  0  0  0
   -0.7495    2.1229   -1.0366 C   0  0  0  0  0  0  0  0  0  0  0  0
    0.5750    1.8122   -1.2342 C   0  0  0  0  0  0  0  0  0  0  0  0
    3.9394   -0.0509    1.2029 N   0  0  0  0  0  0  0  0  0  0  0  0
    9.7667   -0.9261   -0.3115 H   0  0  0  0  0  0  0  0  0  0  0  0
    9.7388    0.8333   -0.5795 H   0  0  0  0  0  0  0  0  0  0  0  0
    7.6976   -2.0907   -0.1916 H   0  0  0  0  0  0  0  0  0  0  0  0
    5.5596   -3.3146    0.1269 H   0  0  0  0  0  0  0  0  0  0  0  0
    3.7395   -2.7723    2.0469 H   0  0  0  0  0  0  0  0  0  0  0  0
    3.2293   -3.2301    0.3966 H   0  0  0  0  0  0  0  0  0  0  0  0
    2.1319   -1.1445    1.1917 H   0  0  0  0  0  0  0  0  0  0  0  0
    2.4332   -1.8492   -1.1473 H   0  0  0  0  0  0  0  0  0  0  0  0
    4.0565   -1.1445   -1.2407 H   0  0  0  0  0  0  0  0  0  0  0  0
    3.0484    0.9617   -1.7069 H   0  0  0  0  0  0  0  0  0  0  0  0
    0.4584   -1.4412   -0.4257 H   0  0  0  0  0  0  0  0  0  0  0  0
   -1.8391   -0.8764   -0.0782 H   0  0  0  0  0  0  0  0  0  0  0  0
   -3.7428   -0.3695    0.3678 H   0  0  0  0  0  0  0  0  0  0  0  0
   -5.5127    2.0270   -0.0472 H   0  0  0  0  0  0  0  0  0  0  0  0
   -6.0372    0.1793   -1.5657 H   0  0  0  0  0  0  0  0  0  0  0  0
   -6.0652   -0.9781   -0.2018 H   0  0  0  0  0  0  0  0  0  0  0  0
   -8.0745    0.1596    0.7260 H   0  0  0  0  0  0  0  0  0  0  0  0
   -8.0034    1.4319   -0.5510 H   0  0  0  0  0  0  0  0  0  0  0  0
   -9.4245   -0.7135   -3.1203 H   0  0  0  0  0  0  0  0  0  0  0  0
   -6.9828    1.8068    3.1658 H   0  0  0  0  0  0  0  0  0  0  0  0
   -1.0906    3.1378   -1.2131 H   0  0  0  0  0  0  0  0  0  0  0  0
    1.3137    2.5543   -1.5683 H   0  0  0  0  0  0  0  0  0  0  0  0
    3.5263    0.6786    1.8098 H   0  0  0  0  0  0  0  0  0  0  0  0
  1  2  1  0
  2  3  2  0
  3  4  1  0
  4  5  2  0
  4  6  1  0
  6  7  2  0
  7  8  1  0
  7  9  1  0
  9 10  1  0
 10 11  1  0
 11 12  1  0
 12 13  1  0
 13 14  1  0
 14 15  2  0
 15 16  1  0
 16 17  2  0
 17 18  1  0
 18 19  2  0
 18 20  1  0
 20 21  1  0
 21 22  1  0
 22 23  1  0
 23 24  1  0
 24 25  2  0
 24 26  1  0
 21 27  1  0
 27 28  2  0
 27 29  1  0
 17 30  1  0
 30 31  2  0
 11 32  1  0
  8  2  1  0
 31 14  1  0
 32  6  1  0
  1 33  1  0
  1 34  1  0
  8 35  1  0
  9 36  1  0
 10 37  1  0
 10 38  1  0
 11 39  1  1
 12 40  1  0
 12 41  1  0
 13 42  1  0
 15 43  1  0
 16 44  1  0
 20 45  1  0
 21 46  1  6
 22 47  1  0
 22 48  1  0
 23 49  1  0
 23 50  1  0
 26 51  1  0
 29 52  1  0
 30 53  1  0
 31 54  1  0
 32 55  1  0
M  END
$$$$

     RDKit          3D

 55 57  0  0  0  0  0  0  0  0999 V2000
   -9.7413    1.1039   -1.4490 N   0  0  0  0  0  0  0  0  0  0  0  0
   -8.4230    0.5922   -1.2624 C   0  0  0  0  0  0  0  0  0  0  0  0
   -7.7274   -0.0156   -2.2368 N   0  0  0  0  0  0  0  0  0  0  0  0
   -6.4814   -0.4949   -2.0467 C   0  0  0  0  0  0  0  0  0  0  0  0
   -5.8319   -1.0632   -2.9591 O   0  0  0  0  0  0  0  0  0  0  0  0
   -5.9449   -0.3257   -0.7720 C   0  0  0  0  0  0  0  0  0  0  0  0
   -6.6347    0.2899    0.2355 C   0  0  0  0  0  0  0  0  0  0  0  0
   -7.8730    0.7412   -0.0329 N   0  0  0  0  0  0  0  0  0  0  0  0
   -6.0120    0.4200    1.5047 N   0  0  0  0  0  0  0  0  0  0  0  0
   -4.5750    0.2886    1.6208 C   0  0  0  0  0  0  0  0  0  0  0  0
   -4.1767   -0.9294    0.8337 C   0  0  2  0  0  0  0  0  0  0  0  0
   -2.6540   -1.0534    0.7469 C   0  0  0  0  0  0  0  0  0  0  0  0
   -2.1069    0.1103    0.0969 N   0  0  0  0  0  0  0  0  0  0  0  0
   -0.7128    0.2436   -0.1082 C   0  0  0  0  0  0  0  0  0  0  0  0
   -0.1895    1.3562   -0.7287 C   0  0  0  0  0  0  0  0  0  0  0  0
    1.1835    1.4847   -0.9293 C   0  0  0  0  0  0  0  0  0  0  0  0
    2.0647    0.5124   -0.5187 C   0  0  0  0  0  0  0  0  0  0  0  0
    3.4875    0.6770   -0.7428 C   0  0  0  0  0  0  0  0  0  0  0  0
    3.9182    1.7235   -1.3200 O   0  0  0  0  0  0  0  0  0  0  0  0
    4.4678   -0.2664   -0.3571 N   0  0  0  0  0  0  0  0  0  0  0  0
    5.9077   -0.0387   -0.6153 C   0  0  1  0  0  0  0  0  0  0  0  0
    6.5547    0.1305    0.7297 C   0  0  0  0  0  0  0  0  0  0  0  0
    8.0338    0.3787    0.6623 C   0  0  0  0  0  0  0  0  0  0  0  0
    8.5548    0.5445    2.0384 C   0  0  0  0  0  0  0  0  0  0  0  0
    7.7858    0.4680    3.0152 O   0  0  0  0  0  0  0  0  0  0  0  0
    9.8951    0.7843    2.2375 O   0  0  0  0  0  0  0  0  0  0  0  0
    6.4303   -1.1382   -1.4199 C   0  0  0  0  0  0  0  0  0  0  0  0
    5.6614   -2.0884   -1.7405 O   0  0  0  0  0  0  0  0  0  0  0  0
    7.7330   -1.1862   -1.8499 O   0  0  0  0  0  0  0  0  0  0  0  0
    1.5487   -0.6024    0.1022 C   0  0  0  0  0  0  0  0  0  0  0  0
    0.1794   -0.7291    0.3016 C   0  0  0  0  0  0  0  0  0  0  0  0
   -4.6527   -0.8113   -0.5381 N   0  0  0  0  0  0  0  0  0  0  0  0
  -10.0643    1.4724   -2.3475 H   0  0  0  0  0  0  0  0  0  0  0  0
  -10.4267    1.1120   -0.6410 H   0  0  0  0  0  0  0  0  0  0  0  0
   -8.3949    1.2110    0.7420 H   0  0  0  0  0  0  0  0  0  0  0  0
   -6.6271    0.6097    2.3256 H   0  0  0  0  0  0  0  0  0  0  0  0
   -4.3381    0.1189    2.6897 H   0  0  0  0  0  0  0  0  0  0  0  0
   -4.1324    1.2138    1.2282 H   0  0  0  0  0  0  0  0  0  0  0  0
   -4.6189   -1.8147    1.3201 H   0  0  0  0  0  0  0  0  0  0  0  0
   -2.3666   -2.0034    0.2520 H   0  0  0  0  0  0  0  0  0  0  0  0
   -2.3140   -1.1133    1.8138 H   0  0  0  0  0  0  0  0  0  0  0  0
   -2.7468    0.8581   -0.2239 H   0  0  0  0  0  0  0  0  0  0  0  0
   -0.8840    2.1229   -1.0525 H   0  0  0  0  0  0  0  0  0  0  0  0
    1.5001    2.3985   -1.4277 H   0  0  0  0  0  0  0  0  0  0  0  0
    4.1636   -1.1412    0.1199 H   0  0  0  0  0  0  0  0  0  0  0  0
    5.9861    0.9590   -1.1324 H   0  0  0  0  0  0  0  0  0  0  0  0
    6.3322   -0.7564    1.3602 H   0  0  0  0  0  0  0  0  0  0  0  0
    6.1054    1.0555    1.1957 H   0  0  0  0  0  0  0  0  0  0  0  0
    8.5488   -0.4625    0.1481 H   0  0  0  0  0  0  0  0  0  0  0  0
    8.1875    1.3355    0.1076 H   0  0  0  0  0  0  0  0  0  0  0  0
   10.2654    1.2207    3.0769 H   0  0  0  0  0  0  0  0  0  0  0  0
    8.2462   -2.0773   -1.9318 H   0  0  0  0  0  0  0  0  0  0  0  0
    2.1755   -1.4056    0.4512 H   0  0  0  0  0  0  0  0  0  0  0  0
   -0.2130   -1.6115    0.7915 H   0  0  0  0  0  0  0  0  0  0  0  0
   -4.0534   -1.0806   -1.3635 H   0  0  0  0  0  0  0  0  0  0  0  0
  1  2  1  0
  2  3  2  0
  3  4  1  0
  4  5  2  0
  4  6  1  0
  6  7  2  0
  7  8  1  0
  7  9  1  0
  9 10  1  0
 10 11  1  0
 11 12  1  0
 12 13  1  0
 13 14  1  0
 14 15  2  0
 15 16  1  0
 16 17  2  0
 17 18  1  0
 18 19  2  0
 18 20  1  0
 20 21  1  0
 21 22  1  0
 22 23  1  0
 23 24  1  0
 24 25  2  0
 24 26  1  0
 21 27  1  0
 27 28  2  0
 27 29  1  0
 17 30  1  0
 30 31  2  0
 11 32  1  0
  8  2  1  0
 31 14  1  0
 32  6  1  0
  1 33  1  0
  1 34  1  0
  8 35  1  0
  9 36  1  0
 10 37  1  0
 10 38  1  0
 11 39  1  1
 12 40  1  0
 12 41  1  0
 13 42  1  0
 15 43  1  0
 16 44  1  0
 20 45  1  0
 21 46  1  6
 22 47  1  0
 22 48  1  0
 23 49  1  0
 23 50  1  0
 26 51  1  0
 29 52  1  0
 30 53  1  0
 31 54  1  0
 32 55  1  0
M  END
$$$$

     RDKit          3D

 55 57  0  0  0  0  0  0  0  0999 V2000
   10.1010   -0.8855    0.9053 N   0  0  0  0  0  0  0  0  0  0  0  0
    8.6967   -0.9640    0.6919 C   0  0  0  0  0  0  0  0  0  0  0  0
    7.9815   -2.0615    1.0565 N   0  0  0  0  0  0  0  0  0  0  0  0
    6.6619   -2.0256    0.8057 C   0  0  0  0  0  0  0  0  0  0  0  0
    5.9261   -3.0130    1.1168 O   0  0  0  0  0  0  0  0  0  0  0  0
    6.0186   -0.9598    0.2138 C   0  0  0  0  0  0  0  0  0  0  0  0
    6.7809    0.1256   -0.1369 C   0  0  0  0  0  0  0  0  0  0  0  0
    8.1120    0.0966    0.1135 N   0  0  0  0  0  0  0  0  0  0  0  0
    6.1188    1.2209   -0.7497 N   0  0  0  0  0  0  0  0  0  0  0  0
    4.6797    1.3212   -0.8188 C   0  0  0  0  0  0  0  0  0  0  0  0
    4.0953   -0.0486   -1.0108 C   0  0  2  0  0  0  0  0  0  0  0  0
    2.5918   -0.0469   -1.0717 C   0  0  0  0  0  0  0  0  0  0  0  0
    1.9771    0.4733    0.1068 N   0  0  0  0  0  0  0  0  0  0  0  0
    0.5696    0.5005    0.2202 C   0  0  0  0  0  0  0  0  0  0  0  0
   -0.0457    1.1277    1.2930 C   0  0  0  0  0  0  0  0  0  0  0  0
   -1.4107    1.1546    1.4249 C   0  0  0  0  0  0  0  0  0  0  0  0
   -2.2270    0.5555    0.4895 C   0  0  0  0  0  0  0  0  0  0  0  0
   -3.6940    0.5942    0.6201 C   0  0  0  0  0  0  0  0  0  0  0  0
   -4.2074    1.4960    1.2890 O   0  0  0  0  0  0  0  0  0  0  0  0
   -4.5085   -0.3894   -0.0118 N   0  0  0  0  0  0  0  0  0  0  0  0
   -5.9778   -0.2563    0.1734 C   0  0  1  0  0  0  0  0  0  0  0  0
   -6.6119   -0.2713   -1.1789 C   0  0  0  0  0  0  0  0  0  0  0  0
   -8.0861   -0.1380   -1.1932 C   0  0  0  0  0  0  0  0  0  0  0  0
   -8.6096    1.1123   -0.6081 C   0  0  0  0  0  0  0  0  0  0  0  0
   -8.2979    1.4788    0.5449 O   0  0  0  0  0  0  0  0  0  0  0  0
   -9.4803    1.9207   -1.3623 O   0  0  0  0  0  0  0  0  0  0  0  0
   -6.4379   -1.3408    1.0710 C   0  0  0  0  0  0  0  0  0  0  0  0
   -5.6153   -2.1727    1.5005 O   0  0  0  0  0  0  0  0  0  0  0  0
   -7.7611   -1.4293    1.4292 O   0  0  0  0  0  0  0  0  0  0  0  0
   -1.6458   -0.0736   -0.5832 C   0  0  0  0  0  0  0  0  0  0  0  0
   -0.2756   -0.0877   -0.6942 C   0  0  0  0  0  0  0  0  0  0  0  0
    4.6182   -0.9506   -0.0367 N   0  0  0  0  0  0  0  0  0  0  0  0
   10.4360   -0.2353    1.6461 H   0  0  0  0  0  0  0  0  0  0  0  0
   10.7808   -1.4625    0.3378 H   0  0  0  0  0  0  0  0  0  0  0  0
    8.6750    0.9490   -0.1689 H   0  0  0  0  0  0  0  0  0  0  0  0
    6.7369    1.9781   -1.1652 H   0  0  0  0  0  0  0  0  0  0  0  0
    4.2268    1.7585    0.0933 H   0  0  0  0  0  0  0  0  0  0  0  0
    4.4091    1.9152   -1.7427 H   0  0  0  0  0  0  0  0  0  0  0  0
    4.4380   -0.3985   -2.0294 H   0  0  0  0  0  0  0  0  0  0  0  0
    2.2416   -1.0882   -1.2678 H   0  0  0  0  0  0  0  0  0  0  0  0
    2.3086    0.5203   -2.0064 H   0  0  0  0  0  0  0  0  0  0  0  0
    2.5548    0.8306    0.8882 H   0  0  0  0  0  0  0  0  0  0  0  0
    0.5669    1.6128    2.0559 H   0  0  0  0  0  0  0  0  0  0  0  0
   -1.8724    1.6531    2.2761 H   0  0  0  0  0  0  0  0  0  0  0  0
   -4.0977   -1.1601   -0.5748 H   0  0  0  0  0  0  0  0  0  0  0  0
   -6.1705    0.7140    0.6655 H   0  0  0  0  0  0  0  0  0  0  0  0
   -6.1560    0.5955   -1.7408 H   0  0  0  0  0  0  0  0  0  0  0  0
   -6.3534   -1.1939   -1.7577 H   0  0  0  0  0  0  0  0  0  0  0  0
   -8.4299   -0.2199   -2.2775 H   0  0  0  0  0  0  0  0  0  0  0  0
   -8.5426   -1.0423   -0.6871 H   0  0  0  0  0  0  0  0  0  0  0  0
   -9.6215    2.8754   -1.0264 H   0  0  0  0  0  0  0  0  0  0  0  0
   -8.0779   -1.8938    2.2913 H   0  0  0  0  0  0  0  0  0  0  0  0
   -2.3076   -0.5410   -1.3069 H   0  0  0  0  0  0  0  0  0  0  0  0
    0.1579   -0.6006   -1.5684 H   0  0  0  0  0  0  0  0  0  0  0  0
    4.0602   -1.6300    0.5298 H   0  0  0  0  0  0  0  0  0  0  0  0
  1  2  1  0
  2  3  2  0
  3  4  1  0
  4  5  2  0
  4  6  1  0
  6  7  2  0
  7  8  1  0
  7  9  1  0
  9 10  1  0
 10 11  1  0
 11 12  1  0
 12 13  1  0
 13 14  1  0
 14 15  2  0
 15 16  1  0
 16 17  2  0
 17 18  1  0
 18 19  2  0
 18 20  1  0
 20 21  1  0
 21 22  1  0
 22 23  1  0
 23 24  1  0
 24 25  2  0
 24 26  1  0
 21 27  1  0
 27 28  2  0
 27 29  1  0
 17 30  1  0
 30 31  2  0
 11 32  1  0
  8  2  1  0
 31 14  1  0
 32  6  1  0
  1 33  1  0
  1 34  1  0
  8 35  1  0
  9 36  1  0
 10 37  1  0
 10 38  1  0
 11 39  1  6
 12 40  1  0
 12 41  1  0
 13 42  1  0
 15 43  1  0
 16 44  1  0
 20 45  1  0
 21 46  1  1
 22 47  1  0
 22 48  1  0
 23 49  1  0
 23 50  1  0
 26 51  1  0
 29 52  1  0
 30 53  1  0
 31 54  1  0
 32 55  1  0
M  END
$$$$

     RDKit          3D

 55 57  0  0  0  0  0  0  0  0999 V2000
   10.1399    0.5174   -0.9751 N   0  0  0  0  0  0  0  0  0  0  0  0
    8.7110    0.5330   -1.1003 C   0  0  0  0  0  0  0  0  0  0  0  0
    8.0931    1.2201   -2.0751 N   0  0  0  0  0  0  0  0  0  0  0  0
    6.7498    1.1981   -2.1432 C   0  0  0  0  0  0  0  0  0  0  0  0
    6.1316    1.8347   -3.0498 O   0  0  0  0  0  0  0  0  0  0  0  0
    5.9697    0.4963   -1.2501 C   0  0  0  0  0  0  0  0  0  0  0  0
    6.6342   -0.1981   -0.2619 C   0  0  0  0  0  0  0  0  0  0  0  0
    7.9987   -0.1677   -0.2038 N   0  0  0  0  0  0  0  0  0  0  0  0
    5.8669   -0.9289    0.6716 N   0  0  0  0  0  0  0  0  0  0  0  0
    4.4326   -1.1132    0.5643 C   0  0  0  0  0  0  0  0  0  0  0  0
    3.8438    0.1142   -0.0812 C   0  0  2  0  0  0  0  0  0  0  0  0
    2.3687    0.0372   -0.2690 C   0  0  0  0  0  0  0  0  0  0  0  0
    1.7413   -0.1229    1.0285 N   0  0  0  0  0  0  0  0  0  0  0  0
    0.3246   -0.2304    1.1314 C   0  0  0  0  0  0  0  0  0  0  0  0
   -0.2914   -0.3822    2.3403 C   0  0  0  0  0  0  0  0  0  0  0  0
   -1.6737   -0.4839    2.4072 C   0  0  0  0  0  0  0  0  0  0  0  0
   -2.4675   -0.4378    1.2868 C   0  0  0  0  0  0  0  0  0  0  0  0
   -3.9046   -0.5499    1.4275 C   0  0  0  0  0  0  0  0  0  0  0  0
   -4.3961   -0.6868    2.5738 O   0  0  0  0  0  0  0  0  0  0  0  0
   -4.8150   -0.5157    0.3442 N   0  0  0  0  0  0  0  0  0  0  0  0
   -6.2342   -0.6254    0.4726 C   0  0  1  0  0  0  0  0  0  0  0  0
   -6.9740    0.5841   -0.0423 C   0  0  0  0  0  0  0  0  0  0  0  0
   -6.7223    0.8503   -1.4883 C   0  0  0  0  0  0  0  0  0  0  0  0
   -7.4856    2.0504   -1.9025 C   0  0  0  0  0  0  0  0  0  0  0  0
   -8.1937    2.6540   -1.0683 O   0  0  0  0  0  0  0  0  0  0  0  0
   -7.4429    2.5393   -3.2085 O   0  0  0  0  0  0  0  0  0  0  0  0
   -6.7392   -1.8175   -0.2371 C   0  0  0  0  0  0  0  0  0  0  0  0
   -5.9147   -2.5518   -0.8345 O   0  0  0  0  0  0  0  0  0  0  0  0
   -8.0768   -2.1781   -0.2845 O   0  0  0  0  0  0  0  0  0  0  0  0
   -1.8254   -0.2841    0.0764 C   0  0  0  0  0  0  0  0  0  0  0  0
   -0.4408   -0.1807   -0.0060 C   0  0  0  0  0  0  0  0  0  0  0  0
    4.5559    0.4507   -1.2914 N   0  0  0  0  0  0  0  0  0  0  0  0
   10.5998   -0.3300   -0.5832 H   0  0  0  0  0  0  0  0  0  0  0  0
   10.7239    1.3226   -1.2626 H   0  0  0  0  0  0  0  0  0  0  0  0
    8.4375   -0.7155    0.5696 H   0  0  0  0  0  0  0  0  0  0  0  0
    6.3603   -1.3623    1.4871 H   0  0  0  0  0  0  0  0  0  0  0  0
    4.1751   -2.0358    0.0027 H   0  0  0  0  0  0  0  0  0  0  0  0
    4.0145   -1.2069    1.5893 H   0  0  0  0  0  0  0  0  0  0  0  0
    4.0419    0.9643    0.6357 H   0  0  0  0  0  0  0  0  0  0  0  0
    1.9792    0.8892   -0.8278 H   0  0  0  0  0  0  0  0  0  0  0  0
    2.1266   -0.8872   -0.8557 H   0  0  0  0  0  0  0  0  0  0  0  0
    2.3043   -0.1619    1.9090 H   0  0  0  0  0  0  0  0  0  0  0  0
    0.3075   -0.4222    3.2432 H   0  0  0  0  0  0  0  0  0  0  0  0
   -2.0897   -0.6028    3.4050 H   0  0  0  0  0  0  0  0  0  0  0  0
   -4.4107   -0.4020   -0.6107 H   0  0  0  0  0  0  0  0  0  0  0  0
   -6.5487   -0.7433    1.5469 H   0  0  0  0  0  0  0  0  0  0  0  0
   -6.8385    1.4836    0.5913 H   0  0  0  0  0  0  0  0  0  0  0  0
   -8.0714    0.3324    0.0520 H   0  0  0  0  0  0  0  0  0  0  0  0
   -5.6472    0.9627   -1.7368 H   0  0  0  0  0  0  0  0  0  0  0  0
   -7.0923    0.0129   -2.1211 H   0  0  0  0  0  0  0  0  0  0  0  0
   -7.5984    3.5329   -3.3743 H   0  0  0  0  0  0  0  0  0  0  0  0
   -8.4904   -2.6191   -1.1173 H   0  0  0  0  0  0  0  0  0  0  0  0
   -2.3954   -0.2401   -0.8485 H   0  0  0  0  0  0  0  0  0  0  0  0
    0.0537   -0.0598   -0.9658 H   0  0  0  0  0  0  0  0  0  0  0  0
    4.0945    0.6637   -2.1997 H   0  0  0  0  0  0  0  0  0  0  0  0
  1  2  1  0
  2  3  2  0
  3  4  1  0
  4  5  2  0
  4  6  1  0
  6  7  2  0
  7  8  1  0
  7  9  1  0
  9 10  1  0
 10 11  1  0
 11 12  1  0
 12 13  1  0
 13 14  1  0
 14 15  2  0
 15 16  1  0
 16 17  2  0
 17 18  1  0
 18 19  2  0
 18 20  1  0
 20 21  1  0
 21 22  1  0
 22 23  1  0
 23 24  1  0
 24 25  2  0
 24 26  1  0
 21 27  1  0
 27 28  2  0
 27 29  1  0
 17 30  1  0
 30 31  2  0
 11 32  1  0
  8  2  1  0
 31 14  1  0
 32  6  1  0
  1 33  1  0
  1 34  1  0
  8 35  1  0
  9 36  1  0
 10 37  1  0
 10 38  1  0
 11 39  1  1
 12 40  1  0
 12 41  1  0
 13 42  1  0
 15 43  1  0
 16 44  1  0
 20 45  1  0
 21 46  1  1
 22 47  1  0
 22 48  1  0
 23 49  1  0
 23 50  1  0
 26 51  1  0
 29 52  1  0
 30 53  1  0
 31 54  1  0
 32 55  1  0
M  END
$$$$

     RDKit          3D

 55 57  0  0  0  0  0  0  0  0999 V2000
   -6.2790   -3.0642   -3.7964 N   0  0  0  0  0  0  0  0  0  0  0  0
   -5.9300   -1.9981   -2.9151 C   0  0  0  0  0  0  0  0  0  0  0  0
   -6.1102   -0.7053   -3.2399 N   0  0  0  0  0  0  0  0  0  0  0  0
   -5.7623    0.2724   -2.3701 C   0  0  0  0  0  0  0  0  0  0  0  0
   -5.9254    1.4935   -2.6605 O   0  0  0  0  0  0  0  0  0  0  0  0
   -5.2174   -0.0082   -1.1334 C   0  0  0  0  0  0  0  0  0  0  0  0
   -5.0374   -1.3475   -0.8116 C   0  0  0  0  0  0  0  0  0  0  0  0
   -5.3955   -2.2698   -1.7017 N   0  0  0  0  0  0  0  0  0  0  0  0
   -4.4777   -1.6295    0.4611 N   0  0  0  0  0  0  0  0  0  0  0  0
   -4.2621   -0.6100    1.4691 C   0  0  0  0  0  0  0  0  0  0  0  0
   -3.8158    0.6510    0.7612 C   0  0  2  0  0  0  0  0  0  0  0  0
   -3.5257    1.7725    1.6960 C   0  0  0  0  0  0  0  0  0  0  0  0
   -2.4763    1.4489    2.6294 N   0  0  0  0  0  0  0  0  0  0  0  0
   -1.1205    1.2297    2.3029 C   0  0  0  0  0  0  0  0  0  0  0  0
   -0.5547    1.4964    1.0697 C   0  0  0  0  0  0  0  0  0  0  0  0
    0.7942    1.2334    0.8304 C   0  0  0  0  0  0  0  0  0  0  0  0
    1.6016    0.7052    1.8030 C   0  0  0  0  0  0  0  0  0  0  0  0
    3.0109    0.4119    1.5935 C   0  0  0  0  0  0  0  0  0  0  0  0
    3.7303   -0.0137    2.5574 O   0  0  0  0  0  0  0  0  0  0  0  0
    3.6656    0.5679    0.3594 N   0  0  0  0  0  0  0  0  0  0  0  0
    5.0934    0.2699    0.1467 C   0  0  1  0  0  0  0  0  0  0  0  0
    5.2545   -0.8927   -0.7437 C   0  0  0  0  0  0  0  0  0  0  0  0
    6.6669   -1.2476   -1.0418 C   0  0  0  0  0  0  0  0  0  0  0  0
    7.4351   -0.2828   -1.8365 C   0  0  0  0  0  0  0  0  0  0  0  0
    8.7028   -0.3154   -1.7516 O   0  0  0  0  0  0  0  0  0  0  0  0
    6.8753    0.6744   -2.6909 O   0  0  0  0  0  0  0  0  0  0  0  0
    5.8555    1.4630   -0.1684 C   0  0  0  0  0  0  0  0  0  0  0  0
    5.3186    2.4515   -0.7261 O   0  0  0  0  0  0  0  0  0  0  0  0
    7.2005    1.5462    0.1461 O   0  0  0  0  0  0  0  0  0  0  0  0
    1.0503    0.4368    3.0326 C   0  0  0  0  0  0  0  0  0  0  0  0
   -0.2828    0.6992    3.2605 C   0  0  0  0  0  0  0  0  0  0  0  0
   -4.8404    0.9931   -0.1960 N   0  0  0  0  0  0  0  0  0  0  0  0
   -7.2387   -3.2263   -4.1684 H   0  0  0  0  0  0  0  0  0  0  0  0
   -5.5185   -3.7187   -4.0816 H   0  0  0  0  0  0  0  0  0  0  0  0
   -5.2610   -3.2930   -1.4622 H   0  0  0  0  0  0  0  0  0  0  0  0
   -4.2162   -2.6275    0.6595 H   0  0  0  0  0  0  0  0  0  0  0  0
   -5.2023   -0.3508    2.0066 H   0  0  0  0  0  0  0  0  0  0  0  0
   -3.5360   -0.9592    2.2176 H   0  0  0  0  0  0  0  0  0  0  0  0
   -2.9160    0.3696    0.1859 H   0  0  0  0  0  0  0  0  0  0  0  0
   -4.4574    2.0794    2.1792 H   0  0  0  0  0  0  0  0  0  0  0  0
   -3.1112    2.6117    1.0613 H   0  0  0  0  0  0  0  0  0  0  0  0
   -2.7608    1.3751    3.6315 H   0  0  0  0  0  0  0  0  0  0  0  0
   -1.1616    1.9225    0.2818 H   0  0  0  0  0  0  0  0  0  0  0  0
    1.1907    1.4553   -0.1399 H   0  0  0  0  0  0  0  0  0  0  0  0
    3.1287    0.9109   -0.4568 H   0  0  0  0  0  0  0  0  0  0  0  0
    5.4574   -0.0626    1.1801 H   0  0  0  0  0  0  0  0  0  0  0  0
    4.8206   -1.7980   -0.2073 H   0  0  0  0  0  0  0  0  0  0  0  0
    4.7178   -0.7735   -1.7252 H   0  0  0  0  0  0  0  0  0  0  0  0
    7.2586   -1.4256   -0.0922 H   0  0  0  0  0  0  0  0  0  0  0  0
    6.7302   -2.2251   -1.6204 H   0  0  0  0  0  0  0  0  0  0  0  0
    7.4231    0.9198   -3.5291 H   0  0  0  0  0  0  0  0  0  0  0  0
    7.7122    2.3921   -0.0569 H   0  0  0  0  0  0  0  0  0  0  0  0
    1.6803    0.0213    3.8017 H   0  0  0  0  0  0  0  0  0  0  0  0
   -0.6594    0.4636    4.2572 H   0  0  0  0  0  0  0  0  0  0  0  0
   -5.3231    1.9045   -0.2573 H   0  0  0  0  0  0  0  0  0  0  0  0
  1  2  1  0
  2  3  2  0
  3  4  1  0
  4  5  2  0
  4  6  1  0
  6  7  2  0
  7  8  1  0
  7  9  1  0
  9 10  1  0
 10 11  1  0
 11 12  1  0
 12 13  1  0
 13 14  1  0
 14 15  2  0
 15 16  1  0
 16 17  2  0
 17 18  1  0
 18 19  2  0
 18 20  1  0
 20 21  1  0
 21 22  1  0
 22 23  1  0
 23 24  1  0
 24 25  2  0
 24 26  1  0
 21 27  1  0
 27 28  2  0
 27 29  1  0
 17 30  1  0
 30 31  2  0
 11 32  1  0
  8  2  1  0
 31 14  1  0
 32  6  1  0
  1 33  1  0
  1 34  1  0
  8 35  1  0
  9 36  1  0
 10 37  1  0
 10 38  1  0
 11 39  1  6
 12 40  1  0
 12 41  1  0
 13 42  1  0
 15 43  1  0
 16 44  1  0
 20 45  1  0
 21 46  1  1
 22 47  1  0
 22 48  1  0
 23 49  1  0
 23 50  1  0
 26 51  1  0
 29 52  1  0
 30 53  1  0
 31 54  1  0
 32 55  1  0
M  END
$$$$

     RDKit          3D

 55 57  0  0  0  0  0  0  0  0999 V2000
   -9.9942    0.5773   -0.2165 N   0  0  0  0  0  0  0  0  0  0  0  0
   -8.5979    0.4302   -0.3968 C   0  0  0  0  0  0  0  0  0  0  0  0
   -7.9973    1.0895   -1.4086 N   0  0  0  0  0  0  0  0  0  0  0  0
   -6.6705    0.9359   -1.5634 C   0  0  0  0  0  0  0  0  0  0  0  0
   -6.0249    1.5184   -2.4880 O   0  0  0  0  0  0  0  0  0  0  0  0
   -5.9412    0.1311   -0.7178 C   0  0  0  0  0  0  0  0  0  0  0  0
   -6.5978   -0.5241    0.3039 C   0  0  0  0  0  0  0  0  0  0  0  0
   -7.9313   -0.3654    0.4539 N   0  0  0  0  0  0  0  0  0  0  0  0
   -5.8484   -1.3569    1.1829 N   0  0  0  0  0  0  0  0  0  0  0  0
   -4.4063   -1.1974    1.1958 C   0  0  0  0  0  0  0  0  0  0  0  0
   -3.9330   -1.1719   -0.2256 C   0  0  2  0  0  0  0  0  0  0  0  0
   -2.4374   -1.1974   -0.3778 C   0  0  0  0  0  0  0  0  0  0  0  0
   -1.7755   -0.1002    0.2359 N   0  0  0  0  0  0  0  0  0  0  0  0
   -0.3655    0.0225    0.1488 C   0  0  0  0  0  0  0  0  0  0  0  0
    0.4070   -0.9045   -0.5437 C   0  0  0  0  0  0  0  0  0  0  0  0
    1.7604   -0.7804   -0.6243 C   0  0  0  0  0  0  0  0  0  0  0  0
    2.4461    0.2720   -0.0246 C   0  0  0  0  0  0  0  0  0  0  0  0
    3.8937    0.3921   -0.1263 C   0  0  0  0  0  0  0  0  0  0  0  0
    4.4437   -0.3967   -0.9520 O   0  0  0  0  0  0  0  0  0  0  0  0
    4.6372    1.3143    0.6338 N   0  0  0  0  0  0  0  0  0  0  0  0
    6.0558    1.4988    0.6262 C   0  0  1  0  0  0  0  0  0  0  0  0
    6.8447    0.3234    0.0497 C   0  0  0  0  0  0  0  0  0  0  0  0
    6.6837   -0.9327    0.8694 C   0  0  0  0  0  0  0  0  0  0  0  0
    7.4218   -2.0756    0.2621 C   0  0  0  0  0  0  0  0  0  0  0  0
    6.9598   -2.7073   -0.7217 O   0  0  0  0  0  0  0  0  0  0  0  0
    8.6661   -2.4824    0.7771 O   0  0  0  0  0  0  0  0  0  0  0  0
    6.5386    2.8065    0.2007 C   0  0  0  0  0  0  0  0  0  0  0  0
    5.7579    3.7239   -0.1425 O   0  0  0  0  0  0  0  0  0  0  0  0
    7.8994    3.0542    0.1703 O   0  0  0  0  0  0  0  0  0  0  0  0
    1.6785    1.1832    0.6573 C   0  0  0  0  0  0  0  0  0  0  0  0
    0.2944    1.0508    0.7361 C   0  0  0  0  0  0  0  0  0  0  0  0
   -4.5365   -0.0320   -0.8810 N   0  0  0  0  0  0  0  0  0  0  0  0
  -10.6539   -0.2249   -0.2082 H   0  0  0  0  0  0  0  0  0  0  0  0
  -10.3777    1.5233   -0.0874 H   0  0  0  0  0  0  0  0  0  0  0  0
   -8.4508   -0.8652    1.2369 H   0  0  0  0  0  0  0  0  0  0  0  0
   -6.3409   -2.0486    1.7848 H   0  0  0  0  0  0  0  0  0  0  0  0
   -3.9354   -2.0174    1.7886 H   0  0  0  0  0  0  0  0  0  0  0  0
   -4.1748   -0.2395    1.7078 H   0  0  0  0  0  0  0  0  0  0  0  0
   -4.3601   -2.0741   -0.7192 H   0  0  0  0  0  0  0  0  0  0  0  0
   -2.1015   -2.1653    0.1014 H   0  0  0  0  0  0  0  0  0  0  0  0
   -2.2007   -1.3002   -1.4492 H   0  0  0  0  0  0  0  0  0  0  0  0
   -2.3067    0.6212    0.7527 H   0  0  0  0  0  0  0  0  0  0  0  0
   -0.1468   -1.7308   -1.0131 H   0  0  0  0  0  0  0  0  0  0  0  0
    2.3297   -1.5061   -1.1614 H   0  0  0  0  0  0  0  0  0  0  0  0
    4.1000    1.9534    1.2971 H   0  0  0  0  0  0  0  0  0  0  0  0
    6.3508    1.3730    1.7512 H   0  0  0  0  0  0  0  0  0  0  0  0
    6.6687    0.1792   -1.0284 H   0  0  0  0  0  0  0  0  0  0  0  0
    7.9289    0.6231    0.1910 H   0  0  0  0  0  0  0  0  0  0  0  0
    5.6590   -1.1959    1.1256 H   0  0  0  0  0  0  0  0  0  0  0  0
    7.1916   -0.7042    1.8748 H   0  0  0  0  0  0  0  0  0  0  0  0
    9.3945   -2.7660    0.1186 H   0  0  0  0  0  0  0  0  0  0  0  0
    8.3055    3.9988    0.2254 H   0  0  0  0  0  0  0  0  0  0  0  0
    2.1199    2.0166    1.1428 H   0  0  0  0  0  0  0  0  0  0  0  0
   -0.2944    1.7873    1.2840 H   0  0  0  0  0  0  0  0  0  0  0  0
   -4.0363    0.6633   -1.4495 H   0  0  0  0  0  0  0  0  0  0  0  0
  1  2  1  0
  2  3  2  0
  3  4  1  0
  4  5  2  0
  4  6  1  0
  6  7  2  0
  7  8  1  0
  7  9  1  0
  9 10  1  0
 10 11  1  0
 11 12  1  0
 12 13  1  0
 13 14  1  0
 14 15  2  0
 15 16  1  0
 16 17  2  0
 17 18  1  0
 18 19  2  0
 18 20  1  0
 20 21  1  0
 21 22  1  0
 22 23  1  0
 23 24  1  0
 24 25  2  0
 24 26  1  0
 21 27  1  0
 27 28  2  0
 27 29  1  0
 17 30  1  0
 30 31  2  0
 11 32  1  0
  8  2  1  0
 31 14  1  0
 32  6  1  0
  1 33  1  0
  1 34  1  0
  8 35  1  0
  9 36  1  0
 10 37  1  0
 10 38  1  0
 11 39  1  6
 12 40  1  0
 12 41  1  0
 13 42  1  0
 15 43  1  0
 16 44  1  0
 20 45  1  0
 21 46  1  1
 22 47  1  0
 22 48  1  0
 23 49  1  0
 23 50  1  0
 26 51  1  0
 29 52  1  0
 30 53  1  0
 31 54  1  0
 32 55  1  0
M  END
$$$$

     RDKit          3D

 55 57  0  0  0  0  0  0  0  0999 V2000
   10.4353   -0.2624    0.4136 N   0  0  0  0  0  0  0  0  0  0  0  0
    9.0524    0.1053    0.3746 C   0  0  0  0  0  0  0  0  0  0  0  0
    8.6846    1.3097    0.8345 N   0  0  0  0  0  0  0  0  0  0  0  0
    7.3795    1.6762    0.8054 C   0  0  0  0  0  0  0  0  0  0  0  0
    7.0314    2.7974    1.2332 O   0  0  0  0  0  0  0  0  0  0  0  0
    6.4127    0.8288    0.3077 C   0  0  0  0  0  0  0  0  0  0  0  0
    6.8162   -0.4207   -0.1680 C   0  0  0  0  0  0  0  0  0  0  0  0
    8.1272   -0.7382   -0.1157 N   0  0  0  0  0  0  0  0  0  0  0  0
    5.8429   -1.3152   -0.6897 N   0  0  0  0  0  0  0  0  0  0  0  0
    4.5497   -0.7868   -1.0720 C   0  0  0  0  0  0  0  0  0  0  0  0
    4.0894    0.0806    0.0857 C   0  0  2  0  0  0  0  0  0  0  0  0
    2.6687    0.5806   -0.1314 C   0  0  0  0  0  0  0  0  0  0  0  0
    1.7870   -0.5620   -0.2395 N   0  0  0  0  0  0  0  0  0  0  0  0
    0.3968   -0.3020   -0.4688 C   0  0  0  0  0  0  0  0  0  0  0  0
   -0.5146   -1.3356   -0.5401 C   0  0  0  0  0  0  0  0  0  0  0  0
   -1.8526   -1.0838   -0.7661 C   0  0  0  0  0  0  0  0  0  0  0  0
   -2.3345    0.2046   -0.9292 C   0  0  0  0  0  0  0  0  0  0  0  0
   -3.7792    0.4358   -1.1511 C   0  0  0  0  0  0  0  0  0  0  0  0
   -4.2100    0.6394   -2.3126 O   0  0  0  0  0  0  0  0  0  0  0  0
   -4.6884    0.4371   -0.0849 N   0  0  0  0  0  0  0  0  0  0  0  0
   -6.1202    0.6584   -0.1809 C   0  0  1  0  0  0  0  0  0  0  0  0
   -6.7745   -0.5856    0.3465 C   0  0  0  0  0  0  0  0  0  0  0  0
   -8.2613   -0.5758    0.3628 C   0  0  0  0  0  0  0  0  0  0  0  0
   -8.7088   -1.8867    0.8754 C   0  0  0  0  0  0  0  0  0  0  0  0
   -8.3000   -2.9330    0.3408 O   0  0  0  0  0  0  0  0  0  0  0  0
   -9.5713   -1.9374    1.9427 O   0  0  0  0  0  0  0  0  0  0  0  0
   -6.4356    1.8834    0.5688 C   0  0  0  0  0  0  0  0  0  0  0  0
   -5.5535    2.5131    1.1683 O   0  0  0  0  0  0  0  0  0  0  0  0
   -7.7358    2.3387    0.6053 O   0  0  0  0  0  0  0  0  0  0  0  0
   -1.4320    1.2357   -0.8591 C   0  0  0  0  0  0  0  0  0  0  0  0
   -0.0963    0.9770   -0.6328 C   0  0  0  0  0  0  0  0  0  0  0  0
    5.0275    1.1609    0.2510 N   0  0  0  0  0  0  0  0  0  0  0  0
   11.1180    0.3122    0.9706 H   0  0  0  0  0  0  0  0  0  0  0  0
   10.8277   -1.0865   -0.0881 H   0  0  0  0  0  0  0  0  0  0  0  0
    8.4462   -1.6857   -0.4759 H   0  0  0  0  0  0  0  0  0  0  0  0
    6.0807   -2.3239   -0.7841 H   0  0  0  0  0  0  0  0  0  0  0  0
    4.6323   -0.0933   -1.9557 H   0  0  0  0  0  0  0  0  0  0  0  0
    3.8011   -1.5734   -1.2710 H   0  0  0  0  0  0  0  0  0  0  0  0
    4.0584   -0.5321    1.0349 H   0  0  0  0  0  0  0  0  0  0  0  0
    2.6312    1.2133   -1.0652 H   0  0  0  0  0  0  0  0  0  0  0  0
    2.4135    1.2540    0.7093 H   0  0  0  0  0  0  0  0  0  0  0  0
    2.1032   -1.5395   -0.1596 H   0  0  0  0  0  0  0  0  0  0  0  0
   -0.1682   -2.3495   -0.4164 H   0  0  0  0  0  0  0  0  0  0  0  0
   -2.5774   -1.8992   -0.8218 H   0  0  0  0  0  0  0  0  0  0  0  0
   -4.3214    0.2640    0.8889 H   0  0  0  0  0  0  0  0  0  0  0  0
   -6.3519    0.7876   -1.2809 H   0  0  0  0  0  0  0  0  0  0  0  0
   -6.4108   -1.4394   -0.2608 H   0  0  0  0  0  0  0  0  0  0  0  0
   -6.3670   -0.7374    1.3872 H   0  0  0  0  0  0  0  0  0  0  0  0
   -8.6134   -0.4234   -0.6977 H   0  0  0  0  0  0  0  0  0  0  0  0
   -8.6635    0.2596    0.9820 H   0  0  0  0  0  0  0  0  0  0  0  0
  -10.0991   -2.7833    2.1955 H   0  0  0  0  0  0  0  0  0  0  0  0
   -8.0871    3.0253    1.2591 H   0  0  0  0  0  0  0  0  0  0  0  0
   -1.7786    2.2524   -0.9838 H   0  0  0  0  0  0  0  0  0  0  0  0
    0.6280    1.7868   -0.5708 H   0  0  0  0  0  0  0  0  0  0  0  0
    4.7651    2.1740    0.3358 H   0  0  0  0  0  0  0  0  0  0  0  0
  1  2  1  0
  2  3  2  0
  3  4  1  0
  4  5  2  0
  4  6  1  0
  6  7  2  0
  7  8  1  0
  7  9  1  0
  9 10  1  0
 10 11  1  0
 11 12  1  0
 12 13  1  0
 13 14  1  0
 14 15  2  0
 15 16  1  0
 16 17  2  0
 17 18  1  0
 18 19  2  0
 18 20  1  0
 20 21  1  0
 21 22  1  0
 22 23  1  0
 23 24  1  0
 24 25  2  0
 24 26  1  0
 21 27  1  0
 27 28  2  0
 27 29  1  0
 17 30  1  0
 30 31  2  0
 11 32  1  0
  8  2  1  0
 31 14  1  0
 32  6  1  0
  1 33  1  0
  1 34  1  0
  8 35  1  0
  9 36  1  0
 10 37  1  0
 10 38  1  0
 11 39  1  1
 12 40  1  0
 12 41  1  0
 13 42  1  0
 15 43  1  0
 16 44  1  0
 20 45  1  0
 21 46  1  6
 22 47  1  0
 22 48  1  0
 23 49  1  0
 23 50  1  0
 26 51  1  0
 29 52  1  0
 30 53  1  0
 31 54  1  0
 32 55  1  0
M  END
$$$$

     RDKit          3D

 55 57  0  0  0  0  0  0  0  0999 V2000
   -9.7839    1.0342    0.3047 N   0  0  0  0  0  0  0  0  0  0  0  0
   -8.4178    0.7480    0.5963 C   0  0  0  0  0  0  0  0  0  0  0  0
   -8.0157    0.3530    1.7971 N   0  0  0  0  0  0  0  0  0  0  0  0
   -6.7425    0.0741    2.1151 C   0  0  0  0  0  0  0  0  0  0  0  0
   -6.3672   -0.2993    3.2535 O   0  0  0  0  0  0  0  0  0  0  0  0
   -5.7667    0.2014    1.1349 C   0  0  0  0  0  0  0  0  0  0  0  0
   -6.1856    0.6098   -0.1055 C   0  0  0  0  0  0  0  0  0  0  0  0
   -7.4978    0.8796   -0.3694 N   0  0  0  0  0  0  0  0  0  0  0  0
   -5.2068    0.7498   -1.1325 N   0  0  0  0  0  0  0  0  0  0  0  0
   -3.8435    1.0329   -0.7461 C   0  0  0  0  0  0  0  0  0  0  0  0
   -3.3911    0.0781    0.3610 C   0  0  2  0  0  0  0  0  0  0  0  0
   -3.0589   -1.2701   -0.2594 C   0  0  0  0  0  0  0  0  0  0  0  0
   -2.0090   -1.2037   -1.2355 N   0  0  0  0  0  0  0  0  0  0  0  0
   -0.6901   -0.8880   -0.8456 C   0  0  0  0  0  0  0  0  0  0  0  0
   -0.3380   -0.9072    0.4712 C   0  0  0  0  0  0  0  0  0  0  0  0
    0.9585   -0.5803    0.8532 C   0  0  0  0  0  0  0  0  0  0  0  0
    1.9242   -0.2303   -0.0646 C   0  0  0  0  0  0  0  0  0  0  0  0
    3.2690    0.1079    0.3563 C   0  0  0  0  0  0  0  0  0  0  0  0
    3.5243    0.0698    1.6051 O   0  0  0  0  0  0  0  0  0  0  0  0
    4.3286    0.4787   -0.5030 N   0  0  0  0  0  0  0  0  0  0  0  0
    5.6669    0.8057    0.0249 C   0  0  1  0  0  0  0  0  0  0  0  0
    6.5921   -0.1831   -0.6346 C   0  0  0  0  0  0  0  0  0  0  0  0
    8.0236   -0.0645   -0.2313 C   0  0  0  0  0  0  0  0  0  0  0  0
    8.1991   -0.2803    1.2190 C   0  0  0  0  0  0  0  0  0  0  0  0
    7.8137    0.5764    2.0338 O   0  0  0  0  0  0  0  0  0  0  0  0
    8.7938   -1.4391    1.6665 O   0  0  0  0  0  0  0  0  0  0  0  0
    6.0463    2.1707   -0.4196 C   0  0  0  0  0  0  0  0  0  0  0  0
    5.2684    2.8240   -1.1606 O   0  0  0  0  0  0  0  0  0  0  0  0
    7.2324    2.7456   -0.0395 O   0  0  0  0  0  0  0  0  0  0  0  0
    1.5442   -0.2188   -1.3858 C   0  0  0  0  0  0  0  0  0  0  0  0
    0.2557   -0.5405   -1.7993 C   0  0  0  0  0  0  0  0  0  0  0  0
   -4.4095   -0.0665    1.3698 N   0  0  0  0  0  0  0  0  0  0  0  0
  -10.2329    1.8603    0.7578 H   0  0  0  0  0  0  0  0  0  0  0  0
  -10.3729    0.4654   -0.3405 H   0  0  0  0  0  0  0  0  0  0  0  0
   -7.7754    1.1927   -1.3423 H   0  0  0  0  0  0  0  0  0  0  0  0
   -5.5076    0.6425   -2.1335 H   0  0  0  0  0  0  0  0  0  0  0  0
   -3.6888    2.0925   -0.4339 H   0  0  0  0  0  0  0  0  0  0  0  0
   -3.2080    0.8382   -1.6344 H   0  0  0  0  0  0  0  0  0  0  0  0
   -2.5261    0.5799    0.8263 H   0  0  0  0  0  0  0  0  0  0  0  0
   -2.7568   -1.9971    0.5215 H   0  0  0  0  0  0  0  0  0  0  0  0
   -3.9966   -1.6593   -0.7251 H   0  0  0  0  0  0  0  0  0  0  0  0
   -2.2560   -1.3967   -2.2419 H   0  0  0  0  0  0  0  0  0  0  0  0
   -1.0565   -1.1848    1.2148 H   0  0  0  0  0  0  0  0  0  0  0  0
    1.1668   -0.6181    1.9268 H   0  0  0  0  0  0  0  0  0  0  0  0
    4.1354    0.5141   -1.5214 H   0  0  0  0  0  0  0  0  0  0  0  0
    5.6711    0.7203    1.1228 H   0  0  0  0  0  0  0  0  0  0  0  0
    6.2096   -1.2234   -0.5642 H   0  0  0  0  0  0  0  0  0  0  0  0
    6.5609    0.0407   -1.7429 H   0  0  0  0  0  0  0  0  0  0  0  0
    8.4838    0.9019   -0.5210 H   0  0  0  0  0  0  0  0  0  0  0  0
    8.6596   -0.8263   -0.7969 H   0  0  0  0  0  0  0  0  0  0  0  0
    8.8973   -1.6718    2.6481 H   0  0  0  0  0  0  0  0  0  0  0  0
    7.7097    3.4790   -0.5913 H   0  0  0  0  0  0  0  0  0  0  0  0
    2.2780    0.0501   -2.1297 H   0  0  0  0  0  0  0  0  0  0  0  0
   -0.0243   -0.5254   -2.8461 H   0  0  0  0  0  0  0  0  0  0  0  0
   -4.0875   -0.3893    2.3165 H   0  0  0  0  0  0  0  0  0  0  0  0
  1  2  1  0
  2  3  2  0
  3  4  1  0
  4  5  2  0
  4  6  1  0
  6  7  2  0
  7  8  1  0
  7  9  1  0
  9 10  1  0
 10 11  1  0
 11 12  1  0
 12 13  1  0
 13 14  1  0
 14 15  2  0
 15 16  1  0
 16 17  2  0
 17 18  1  0
 18 19  2  0
 18 20  1  0
 20 21  1  0
 21 22  1  0
 22 23  1  0
 23 24  1  0
 24 25  2  0
 24 26  1  0
 21 27  1  0
 27 28  2  0
 27 29  1  0
 17 30  1  0
 30 31  2  0
 11 32  1  0
  8  2  1  0
 31 14  1  0
 32  6  1  0
  1 33  1  0
  1 34  1  0
  8 35  1  0
  9 36  1  0
 10 37  1  0
 10 38  1  0
 11 39  1  1
 12 40  1  0
 12 41  1  0
 13 42  1  0
 15 43  1  0
 16 44  1  0
 20 45  1  0
 21 46  1  1
 22 47  1  0
 22 48  1  0
 23 49  1  0
 23 50  1  0
 26 51  1  0
 29 52  1  0
 30 53  1  0
 31 54  1  0
 32 55  1  0
M  END
$$$$

     RDKit          3D

 55 57  0  0  0  0  0  0  0  0999 V2000
  -10.1426   -0.6752    0.2006 N   0  0  0  0  0  0  0  0  0  0  0  0
   -8.7207   -0.6758    0.1913 C   0  0  0  0  0  0  0  0  0  0  0  0
   -7.9872   -1.2430    1.1594 N   0  0  0  0  0  0  0  0  0  0  0  0
   -6.6374   -1.2180    1.1082 C   0  0  0  0  0  0  0  0  0  0  0  0
   -5.9099   -1.7407    1.9996 O   0  0  0  0  0  0  0  0  0  0  0  0
   -5.9583   -0.6123    0.0655 C   0  0  0  0  0  0  0  0  0  0  0  0
   -6.7246   -0.0308   -0.9271 C   0  0  0  0  0  0  0  0  0  0  0  0
   -8.0620   -0.0792   -0.8358 N   0  0  0  0  0  0  0  0  0  0  0  0
   -6.0568    0.6027   -2.0151 N   0  0  0  0  0  0  0  0  0  0  0  0
   -4.6153    0.4877   -2.2002 C   0  0  0  0  0  0  0  0  0  0  0  0
   -3.9770    0.5011   -0.8522 C   0  0  2  0  0  0  0  0  0  0  0  0
   -2.4863    0.4728   -0.8831 C   0  0  0  0  0  0  0  0  0  0  0  0
   -1.9425    0.4868    0.4484 N   0  0  0  0  0  0  0  0  0  0  0  0
   -0.5473    0.4660    0.6988 C   0  0  0  0  0  0  0  0  0  0  0  0
    0.3012    0.4375   -0.3881 C   0  0  0  0  0  0  0  0  0  0  0  0
    1.6667    0.4171   -0.1203 C   0  0  0  0  0  0  0  0  0  0  0  0
    2.1486    0.4249    1.1688 C   0  0  0  0  0  0  0  0  0  0  0  0
    3.5931    0.4041    1.3660 C   0  0  0  0  0  0  0  0  0  0  0  0
    3.9903    0.2768    2.5604 O   0  0  0  0  0  0  0  0  0  0  0  0
    4.5572    0.5139    0.3394 N   0  0  0  0  0  0  0  0  0  0  0  0
    6.0018    0.4806    0.6386 C   0  0  1  0  0  0  0  0  0  0  0  0
    6.6427   -0.6993    0.0028 C   0  0  0  0  0  0  0  0  0  0  0  0
    8.1016   -0.7625    0.2909 C   0  0  0  0  0  0  0  0  0  0  0  0
    8.6817   -2.0062   -0.3577 C   0  0  0  0  0  0  0  0  0  0  0  0
    9.8851   -2.2654   -0.2518 O   0  0  0  0  0  0  0  0  0  0  0  0
    7.8715   -2.8689   -1.0774 O   0  0  0  0  0  0  0  0  0  0  0  0
    6.6089    1.7889    0.3430 C   0  0  0  0  0  0  0  0  0  0  0  0
    5.9060    2.6990   -0.1500 O   0  0  0  0  0  0  0  0  0  0  0  0
    7.9341    2.0218    0.6044 O   0  0  0  0  0  0  0  0  0  0  0  0
    1.2691    0.4535    2.2332 C   0  0  0  0  0  0  0  0  0  0  0  0
   -0.0774    0.4742    1.9997 C   0  0  0  0  0  0  0  0  0  0  0  0
   -4.5506   -0.5598   -0.0323 N   0  0  0  0  0  0  0  0  0  0  0  0
  -10.6608   -1.5242   -0.1089 H   0  0  0  0  0  0  0  0  0  0  0  0
  -10.7099    0.1434    0.5063 H   0  0  0  0  0  0  0  0  0  0  0  0
   -8.6436    0.3615   -1.5884 H   0  0  0  0  0  0  0  0  0  0  0  0
   -6.6506    1.1535   -2.6745 H   0  0  0  0  0  0  0  0  0  0  0  0
   -4.2842    1.3383   -2.8058 H   0  0  0  0  0  0  0  0  0  0  0  0
   -4.4534   -0.4934   -2.6894 H   0  0  0  0  0  0  0  0  0  0  0  0
   -4.2686    1.4545   -0.3214 H   0  0  0  0  0  0  0  0  0  0  0  0
   -2.1587    1.4389   -1.3619 H   0  0  0  0  0  0  0  0  0  0  0  0
   -2.0613   -0.3203   -1.5241 H   0  0  0  0  0  0  0  0  0  0  0  0
   -2.5923    0.5131    1.2548 H   0  0  0  0  0  0  0  0  0  0  0  0
   -0.0678    0.4311   -1.4163 H   0  0  0  0  0  0  0  0  0  0  0  0
    2.2952    0.3939   -0.9917 H   0  0  0  0  0  0  0  0  0  0  0  0
    4.2362    0.6206   -0.6386 H   0  0  0  0  0  0  0  0  0  0  0  0
    6.0884    0.3466    1.7502 H   0  0  0  0  0  0  0  0  0  0  0  0
    6.5159   -0.7364   -1.1016 H   0  0  0  0  0  0  0  0  0  0  0  0
    6.1087   -1.6040    0.3777 H   0  0  0  0  0  0  0  0  0  0  0  0
    8.3567   -0.8142    1.3579 H   0  0  0  0  0  0  0  0  0  0  0  0
    8.6821    0.0654   -0.1677 H   0  0  0  0  0  0  0  0  0  0  0  0
    8.2156   -3.3324   -1.9263 H   0  0  0  0  0  0  0  0  0  0  0  0
    8.4090    2.9037    0.4576 H   0  0  0  0  0  0  0  0  0  0  0  0
    1.6808    0.4590    3.2289 H   0  0  0  0  0  0  0  0  0  0  0  0
   -0.8010    0.4972    2.8260 H   0  0  0  0  0  0  0  0  0  0  0  0
   -4.0004   -1.2678    0.4764 H   0  0  0  0  0  0  0  0  0  0  0  0
  1  2  1  0
  2  3  2  0
  3  4  1  0
  4  5  2  0
  4  6  1  0
  6  7  2  0
  7  8  1  0
  7  9  1  0
  9 10  1  0
 10 11  1  0
 11 12  1  0
 12 13  1  0
 13 14  1  0
 14 15  2  0
 15 16  1  0
 16 17  2  0
 17 18  1  0
 18 19  2  0
 18 20  1  0
 20 21  1  0
 21 22  1  0
 22 23  1  0
 23 24  1  0
 24 25  2  0
 24 26  1  0
 21 27  1  0
 27 28  2  0
 27 29  1  0
 17 30  1  0
 30 31  2  0
 11 32  1  0
  8  2  1  0
 31 14  1  0
 32  6  1  0
  1 33  1  0
  1 34  1  0
  8 35  1  0
  9 36  1  0
 10 37  1  0
 10 38  1  0
 11 39  1  1
 12 40  1  0
 12 41  1  0
 13 42  1  0
 15 43  1  0
 16 44  1  0
 20 45  1  0
 21 46  1  1
 22 47  1  0
 22 48  1  0
 23 49  1  0
 23 50  1  0
 26 51  1  0
 29 52  1  0
 30 53  1  0
 31 54  1  0
 32 55  1  0
M  END
$$$$

     RDKit          3D

 55 57  0  0  0  0  0  0  0  0999 V2000
  -10.0571   -0.8546   -1.0302 N   0  0  0  0  0  0  0  0  0  0  0  0
   -8.7322   -0.6117   -0.5652 C   0  0  0  0  0  0  0  0  0  0  0  0
   -8.3819   -0.8067    0.7206 N   0  0  0  0  0  0  0  0  0  0  0  0
   -7.1249   -0.5751    1.1463 C   0  0  0  0  0  0  0  0  0  0  0  0
   -6.7838   -0.7550    2.3560 O   0  0  0  0  0  0  0  0  0  0  0  0
   -6.1329   -0.1294    0.2979 C   0  0  0  0  0  0  0  0  0  0  0  0
   -6.5003    0.0681   -1.0207 C   0  0  0  0  0  0  0  0  0  0  0  0
   -7.7653   -0.1744   -1.4054 N   0  0  0  0  0  0  0  0  0  0  0  0
   -5.5005    0.5254   -1.9170 N   0  0  0  0  0  0  0  0  0  0  0  0
   -4.0876    0.4074   -1.5286 C   0  0  0  0  0  0  0  0  0  0  0  0
   -3.9942    0.9830   -0.1230 C   0  0  2  0  0  0  0  0  0  0  0  0
   -2.5870    1.1622    0.3210 C   0  0  0  0  0  0  0  0  0  0  0  0
   -1.8469   -0.0695    0.3441 N   0  0  0  0  0  0  0  0  0  0  0  0
   -0.4644   -0.1040    0.6917 C   0  0  0  0  0  0  0  0  0  0  0  0
    0.1993    1.0715    0.9936 C   0  0  0  0  0  0  0  0  0  0  0  0
    1.5497    1.0494    1.3265 C   0  0  0  0  0  0  0  0  0  0  0  0
    2.2776   -0.1155    1.3718 C   0  0  0  0  0  0  0  0  0  0  0  0
    3.6965   -0.1957    1.7065 C   0  0  0  0  0  0  0  0  0  0  0  0
    4.0798   -0.4237    2.9027 O   0  0  0  0  0  0  0  0  0  0  0  0
    4.7170   -0.0288    0.7392 N   0  0  0  0  0  0  0  0  0  0  0  0
    6.1167   -0.1100    1.0743 C   0  0  1  0  0  0  0  0  0  0  0  0
    6.8668   -1.2129    0.4316 C   0  0  0  0  0  0  0  0  0  0  0  0
    6.9119   -1.2481   -1.0488 C   0  0  0  0  0  0  0  0  0  0  0  0
    7.5290   -0.0790   -1.6945 C   0  0  0  0  0  0  0  0  0  0  0  0
    6.8517    0.8691   -2.1387 O   0  0  0  0  0  0  0  0  0  0  0  0
    8.9351   -0.0709   -1.7933 O   0  0  0  0  0  0  0  0  0  0  0  0
    6.7846    1.1896    0.8664 C   0  0  0  0  0  0  0  0  0  0  0  0
    6.1041    2.2051    0.4855 O   0  0  0  0  0  0  0  0  0  0  0  0
    8.1372    1.3977    1.0589 O   0  0  0  0  0  0  0  0  0  0  0  0
    1.6066   -1.2918    1.0683 C   0  0  0  0  0  0  0  0  0  0  0  0
    0.2561   -1.2734    0.7348 C   0  0  0  0  0  0  0  0  0  0  0  0
   -4.7913    0.1258    0.7293 N   0  0  0  0  0  0  0  0  0  0  0  0
  -10.1882   -1.5599   -1.7714 H   0  0  0  0  0  0  0  0  0  0  0  0
  -10.8833   -0.3554   -0.6569 H   0  0  0  0  0  0  0  0  0  0  0  0
   -8.0141   -0.0175   -2.3961 H   0  0  0  0  0  0  0  0  0  0  0  0
   -5.7969    0.9330   -2.8276 H   0  0  0  0  0  0  0  0  0  0  0  0
   -3.5193    0.9763   -2.2662 H   0  0  0  0  0  0  0  0  0  0  0  0
   -3.7485   -0.6317   -1.5076 H   0  0  0  0  0  0  0  0  0  0  0  0
   -4.5103    1.9768   -0.1676 H   0  0  0  0  0  0  0  0  0  0  0  0
   -2.5951    1.5523    1.3693 H   0  0  0  0  0  0  0  0  0  0  0  0
   -2.0854    1.9472   -0.2751 H   0  0  0  0  0  0  0  0  0  0  0  0
   -2.3308   -0.9625    0.1002 H   0  0  0  0  0  0  0  0  0  0  0  0
   -0.3085    2.0094    0.9763 H   0  0  0  0  0  0  0  0  0  0  0  0
    2.0664    1.9907    1.5647 H   0  0  0  0  0  0  0  0  0  0  0  0
    4.4486    0.1606   -0.2506 H   0  0  0  0  0  0  0  0  0  0  0  0
    6.2064   -0.3090    2.2000 H   0  0  0  0  0  0  0  0  0  0  0  0
    7.9415   -1.1075    0.7816 H   0  0  0  0  0  0  0  0  0  0  0  0
    6.5804   -2.2241    0.8074 H   0  0  0  0  0  0  0  0  0  0  0  0
    7.5439   -2.1440   -1.3262 H   0  0  0  0  0  0  0  0  0  0  0  0
    5.9190   -1.4915   -1.5037 H   0  0  0  0  0  0  0  0  0  0  0  0
    9.4076    0.7931   -1.9603 H   0  0  0  0  0  0  0  0  0  0  0  0
    8.6025    2.2763    0.9286 H   0  0  0  0  0  0  0  0  0  0  0  0
    2.1387   -2.2304    1.0908 H   0  0  0  0  0  0  0  0  0  0  0  0
   -0.2796   -2.1958    0.4949 H   0  0  0  0  0  0  0  0  0  0  0  0
   -4.4646   -0.3105    1.6177 H   0  0  0  0  0  0  0  0  0  0  0  0
  1  2  1  0
  2  3  2  0
  3  4  1  0
  4  5  2  0
  4  6  1  0
  6  7  2  0
  7  8  1  0
  7  9  1  0
  9 10  1  0
 10 11  1  0
 11 12  1  0
 12 13  1  0
 13 14  1  0
 14 15  2  0
 15 16  1  0
 16 17  2  0
 17 18  1  0
 18 19  2  0
 18 20  1  0
 20 21  1  0
 21 22  1  0
 22 23  1  0
 23 24  1  0
 24 25  2  0
 24 26  1  0
 21 27  1  0
 27 28  2  0
 27 29  1  0
 17 30  1  0
 30 31  2  0
 11 32  1  0
  8  2  1  0
 31 14  1  0
 32  6  1  0
  1 33  1  0
  1 34  1  0
  8 35  1  0
  9 36  1  0
 10 37  1  0
 10 38  1  0
 11 39  1  6
 12 40  1  0
 12 41  1  0
 13 42  1  0
 15 43  1  0
 16 44  1  0
 20 45  1  0
 21 46  1  1
 22 47  1  0
 22 48  1  0
 23 49  1  0
 23 50  1  0
 26 51  1  0
 29 52  1  0
 30 53  1  0
 31 54  1  0
 32 55  1  0
M  END
$$$$

     RDKit          3D

 55 57  0  0  0  0  0  0  0  0999 V2000
   -9.8074    0.6642    1.6410 N   0  0  0  0  0  0  0  0  0  0  0  0
   -8.4604    0.5185    1.2140 C   0  0  0  0  0  0  0  0  0  0  0  0
   -7.4594    1.1623    1.8421 N   0  0  0  0  0  0  0  0  0  0  0  0
   -6.1699    1.0519    1.4698 C   0  0  0  0  0  0  0  0  0  0  0  0
   -5.2408    1.6592    2.0652 O   0  0  0  0  0  0  0  0  0  0  0  0
   -5.8191    0.2530    0.4018 C   0  0  0  0  0  0  0  0  0  0  0  0
   -6.8349   -0.4122   -0.2513 C   0  0  0  0  0  0  0  0  0  0  0  0
   -8.1185   -0.2642    0.1673 N   0  0  0  0  0  0  0  0  0  0  0  0
   -6.4823   -1.2369   -1.3551 N   0  0  0  0  0  0  0  0  0  0  0  0
   -5.1195   -1.5278   -1.6669 C   0  0  0  0  0  0  0  0  0  0  0  0
   -4.1627   -0.4344   -1.2856 C   0  0  2  0  0  0  0  0  0  0  0  0
   -2.7360   -0.9454   -1.2634 C   0  0  0  0  0  0  0  0  0  0  0  0
   -1.8960    0.1756   -0.8857 N   0  0  0  0  0  0  0  0  0  0  0  0
   -0.4994   -0.0323   -0.7808 C   0  0  0  0  0  0  0  0  0  0  0  0
    0.3078    1.0000   -0.3972 C   0  0  0  0  0  0  0  0  0  0  0  0
    1.6574    0.8022   -0.2933 C   0  0  0  0  0  0  0  0  0  0  0  0
    2.1972   -0.4297   -0.5738 C   0  0  0  0  0  0  0  0  0  0  0  0
    3.6371   -0.6908   -0.4674 C   0  0  0  0  0  0  0  0  0  0  0  0
    4.1041   -1.7860   -0.8940 O   0  0  0  0  0  0  0  0  0  0  0  0
    4.5085    0.2410    0.0956 N   0  0  0  0  0  0  0  0  0  0  0  0
    5.9623   -0.0473    0.1928 C   0  0  1  0  0  0  0  0  0  0  0  0
    6.6169    0.9639   -0.6897 C   0  0  0  0  0  0  0  0  0  0  0  0
    8.1010    0.8821   -0.6782 C   0  0  0  0  0  0  0  0  0  0  0  0
    8.6468    1.3441    0.6212 C   0  0  0  0  0  0  0  0  0  0  0  0
    7.9196    2.0915    1.3641 O   0  0  0  0  0  0  0  0  0  0  0  0
    9.8979    1.0262    1.1003 O   0  0  0  0  0  0  0  0  0  0  0  0
    6.3147   -0.1042    1.6006 C   0  0  0  0  0  0  0  0  0  0  0  0
    5.5200    0.3522    2.4888 O   0  0  0  0  0  0  0  0  0  0  0  0
    7.4991   -0.6475    2.1086 O   0  0  0  0  0  0  0  0  0  0  0  0
    1.3698   -1.4869   -0.9671 C   0  0  0  0  0  0  0  0  0  0  0  0
    0.0346   -1.2742   -1.0651 C   0  0  0  0  0  0  0  0  0  0  0  0
   -4.4464    0.1334    0.0042 N   0  0  0  0  0  0  0  0  0  0  0  0
  -10.6384    0.5385    1.0305 H   0  0  0  0  0  0  0  0  0  0  0  0
   -9.9734    0.9146    2.6360 H   0  0  0  0  0  0  0  0  0  0  0  0
   -8.8815   -0.7708   -0.3323 H   0  0  0  0  0  0  0  0  0  0  0  0
   -7.2827   -1.6205   -1.9301 H   0  0  0  0  0  0  0  0  0  0  0  0
   -5.0517   -1.6619   -2.7743 H   0  0  0  0  0  0  0  0  0  0  0  0
   -4.7804   -2.4929   -1.2319 H   0  0  0  0  0  0  0  0  0  0  0  0
   -4.1663    0.3827   -2.0651 H   0  0  0  0  0  0  0  0  0  0  0  0
   -2.6544   -1.6762   -0.4102 H   0  0  0  0  0  0  0  0  0  0  0  0
   -2.4322   -1.4088   -2.2196 H   0  0  0  0  0  0  0  0  0  0  0  0
   -2.2709    1.1241   -0.6888 H   0  0  0  0  0  0  0  0  0  0  0  0
   -0.0835    1.9855   -0.1676 H   0  0  0  0  0  0  0  0  0  0  0  0
    2.2896    1.6455    0.0155 H   0  0  0  0  0  0  0  0  0  0  0  0
    4.1672    1.1722    0.4693 H   0  0  0  0  0  0  0  0  0  0  0  0
    6.0572   -1.0890   -0.2823 H   0  0  0  0  0  0  0  0  0  0  0  0
    6.2492    1.9957   -0.4286 H   0  0  0  0  0  0  0  0  0  0  0  0
    6.2591    0.8405   -1.7554 H   0  0  0  0  0  0  0  0  0  0  0  0
    8.3837   -0.1931   -0.7558 H   0  0  0  0  0  0  0  0  0  0  0  0
    8.5534    1.4690   -1.5257 H   0  0  0  0  0  0  0  0  0  0  0  0
   10.1019    0.8886    2.0889 H   0  0  0  0  0  0  0  0  0  0  0  0
    7.5529   -0.9578    3.0918 H   0  0  0  0  0  0  0  0  0  0  0  0
    1.8342   -2.4504   -1.1816 H   0  0  0  0  0  0  0  0  0  0  0  0
   -0.6086   -2.0825   -1.3670 H   0  0  0  0  0  0  0  0  0  0  0  0
   -3.6662    0.4454    0.6224 H   0  0  0  0  0  0  0  0  0  0  0  0
  1  2  1  0
  2  3  2  0
  3  4  1  0
  4  5  2  0
  4  6  1  0
  6  7  2  0
  7  8  1  0
  7  9  1  0
  9 10  1  0
 10 11  1  0
 11 12  1  0
 12 13  1  0
 13 14  1  0
 14 15  2  0
 15 16  1  0
 16 17  2  0
 17 18  1  0
 18 19  2  0
 18 20  1  0
 20 21  1  0
 21 22  1  0
 22 23  1  0
 23 24  1  0
 24 25  2  0
 24 26  1  0
 21 27  1  0
 27 28  2  0
 27 29  1  0
 17 30  1  0
 30 31  2  0
 11 32  1  0
  8  2  1  0
 31 14  1  0
 32  6  1  0
  1 33  1  0
  1 34  1  0
  8 35  1  0
  9 36  1  0
 10 37  1  0
 10 38  1  0
 11 39  1  6
 12 40  1  0
 12 41  1  0
 13 42  1  0
 15 43  1  0
 16 44  1  0
 20 45  1  0
 21 46  1  6
 22 47  1  0
 22 48  1  0
 23 49  1  0
 23 50  1  0
 26 51  1  0
 29 52  1  0
 30 53  1  0
 31 54  1  0
 32 55  1  0
M  END
$$$$

     RDKit          3D

 55 57  0  0  0  0  0  0  0  0999 V2000
   -9.4873   -1.2719   -1.1410 N   0  0  0  0  0  0  0  0  0  0  0  0
   -8.2356   -0.6326   -0.9246 C   0  0  0  0  0  0  0  0  0  0  0  0
   -7.9697    0.5244   -1.5561 N   0  0  0  0  0  0  0  0  0  0  0  0
   -6.7959    1.1821   -1.3917 C   0  0  0  0  0  0  0  0  0  0  0  0
   -6.5474    2.2539   -1.9756 O   0  0  0  0  0  0  0  0  0  0  0  0
   -5.8246    0.6714   -0.5561 C   0  0  0  0  0  0  0  0  0  0  0  0
   -6.1011   -0.5167    0.0904 C   0  0  0  0  0  0  0  0  0  0  0  0
   -7.2805   -1.1197   -0.1129 N   0  0  0  0  0  0  0  0  0  0  0  0
   -5.0988   -1.0402    0.9491 N   0  0  0  0  0  0  0  0  0  0  0  0
   -3.6925   -0.7757    0.7335 C   0  0  0  0  0  0  0  0  0  0  0  0
   -3.4161    0.6313    0.2508 C   0  0  2  0  0  0  0  0  0  0  0  0
   -2.9073    1.3986    1.4554 C   0  0  0  0  0  0  0  0  0  0  0  0
   -1.6999    0.7461    1.9215 N   0  0  0  0  0  0  0  0  0  0  0  0
   -0.4756    0.7265    1.1946 C   0  0  0  0  0  0  0  0  0  0  0  0
    0.5384   -0.1373    1.5790 C   0  0  0  0  0  0  0  0  0  0  0  0
    1.7261   -0.1424    0.8830 C   0  0  0  0  0  0  0  0  0  0  0  0
    1.9777    0.6808   -0.2028 C   0  0  0  0  0  0  0  0  0  0  0  0
    3.2296    0.6810   -0.9437 C   0  0  0  0  0  0  0  0  0  0  0  0
    3.3313    1.4759   -1.9251 O   0  0  0  0  0  0  0  0  0  0  0  0
    4.3451   -0.1413   -0.6508 N   0  0  0  0  0  0  0  0  0  0  0  0
    5.5754   -0.1063   -1.4196 C   0  0  1  0  0  0  0  0  0  0  0  0
    6.7598    0.2967   -0.5606 C   0  0  0  0  0  0  0  0  0  0  0  0
    6.9718   -0.6674    0.5798 C   0  0  0  0  0  0  0  0  0  0  0  0
    8.1434   -0.1969    1.3607 C   0  0  0  0  0  0  0  0  0  0  0  0
    8.7868    0.8443    1.0445 O   0  0  0  0  0  0  0  0  0  0  0  0
    8.6007   -0.8777    2.4885 O   0  0  0  0  0  0  0  0  0  0  0  0
    5.8074   -1.4329   -2.0176 C   0  0  0  0  0  0  0  0  0  0  0  0
    4.9967   -2.3744   -1.8227 O   0  0  0  0  0  0  0  0  0  0  0  0
    6.9079   -1.7250   -2.8155 O   0  0  0  0  0  0  0  0  0  0  0  0
    0.9563    1.5336   -0.5698 C   0  0  0  0  0  0  0  0  0  0  0  0
   -0.2541    1.5641    0.1111 C   0  0  0  0  0  0  0  0  0  0  0  0
   -4.5830    1.2745   -0.3196 N   0  0  0  0  0  0  0  0  0  0  0  0
  -10.0803   -1.5457   -0.3272 H   0  0  0  0  0  0  0  0  0  0  0  0
   -9.8633   -1.4921   -2.0891 H   0  0  0  0  0  0  0  0  0  0  0  0
   -7.4501   -2.0073    0.3895 H   0  0  0  0  0  0  0  0  0  0  0  0
   -5.4109   -1.6354    1.7577 H   0  0  0  0  0  0  0  0  0  0  0  0
   -3.1517   -0.9990    1.6795 H   0  0  0  0  0  0  0  0  0  0  0  0
   -3.3356   -1.4987   -0.0276 H   0  0  0  0  0  0  0  0  0  0  0  0
   -2.6507    0.5787   -0.5420 H   0  0  0  0  0  0  0  0  0  0  0  0
   -3.6687    1.3156    2.2504 H   0  0  0  0  0  0  0  0  0  0  0  0
   -2.7193    2.4632    1.1950 H   0  0  0  0  0  0  0  0  0  0  0  0
   -1.6847    0.2397    2.8607 H   0  0  0  0  0  0  0  0  0  0  0  0
    0.3984   -0.8159    2.4341 H   0  0  0  0  0  0  0  0  0  0  0  0
    2.5280   -0.8155    1.1755 H   0  0  0  0  0  0  0  0  0  0  0  0
    4.2619   -0.7929    0.1542 H   0  0  0  0  0  0  0  0  0  0  0  0
    5.5258    0.6297   -2.2459 H   0  0  0  0  0  0  0  0  0  0  0  0
    7.6557    0.2480   -1.2137 H   0  0  0  0  0  0  0  0  0  0  0  0
    6.6231    1.3070   -0.1659 H   0  0  0  0  0  0  0  0  0  0  0  0
    6.0888   -0.7600    1.2297 H   0  0  0  0  0  0  0  0  0  0  0  0
    7.2390   -1.6862    0.1871 H   0  0  0  0  0  0  0  0  0  0  0  0
    9.0038   -0.3931    3.2833 H   0  0  0  0  0  0  0  0  0  0  0  0
    6.8668   -2.3991   -3.5776 H   0  0  0  0  0  0  0  0  0  0  0  0
    1.0544    2.2189   -1.4076 H   0  0  0  0  0  0  0  0  0  0  0  0
   -1.0463    2.2340   -0.1655 H   0  0  0  0  0  0  0  0  0  0  0  0
   -4.4688    2.2796   -0.5710 H   0  0  0  0  0  0  0  0  0  0  0  0
  1  2  1  0
  2  3  2  0
  3  4  1  0
  4  5  2  0
  4  6  1  0
  6  7  2  0
  7  8  1  0
  7  9  1  0
  9 10  1  0
 10 11  1  0
 11 12  1  0
 12 13  1  0
 13 14  1  0
 14 15  2  0
 15 16  1  0
 16 17  2  0
 17 18  1  0
 18 19  2  0
 18 20  1  0
 20 21  1  0
 21 22  1  0
 22 23  1  0
 23 24  1  0
 24 25  2  0
 24 26  1  0
 21 27  1  0
 27 28  2  0
 27 29  1  0
 17 30  1  0
 30 31  2  0
 11 32  1  0
  8  2  1  0
 31 14  1  0
 32  6  1  0
  1 33  1  0
  1 34  1  0
  8 35  1  0
  9 36  1  0
 10 37  1  0
 10 38  1  0
 11 39  1  6
 12 40  1  0
 12 41  1  0
 13 42  1  0
 15 43  1  0
 16 44  1  0
 20 45  1  0
 21 46  1  6
 22 47  1  0
 22 48  1  0
 23 49  1  0
 23 50  1  0
 26 51  1  0
 29 52  1  0
 30 53  1  0
 31 54  1  0
 32 55  1  0
M  END
$$$$

     RDKit          3D

 55 57  0  0  0  0  0  0  0  0999 V2000
   10.1962   -1.0299   -0.0294 N   0  0  0  0  0  0  0  0  0  0  0  0
    8.7839   -0.9153   -0.1693 C   0  0  0  0  0  0  0  0  0  0  0  0
    8.1051   -1.5410   -1.1546 N   0  0  0  0  0  0  0  0  0  0  0  0
    6.7733   -1.3948   -1.2338 C   0  0  0  0  0  0  0  0  0  0  0  0
    6.0572   -1.9417   -2.1207 O   0  0  0  0  0  0  0  0  0  0  0  0
    6.1025   -0.6147   -0.3206 C   0  0  0  0  0  0  0  0  0  0  0  0
    6.8370    0.0210    0.6903 C   0  0  0  0  0  0  0  0  0  0  0  0
    8.1547   -0.1443    0.7407 N   0  0  0  0  0  0  0  0  0  0  0  0
    6.1582    0.8265    1.6420 N   0  0  0  0  0  0  0  0  0  0  0  0
    4.7320    0.6696    1.7724 C   0  0  0  0  0  0  0  0  0  0  0  0
    4.1346    0.6729    0.3755 C   0  0  2  0  0  0  0  0  0  0  0  0
    2.6312    0.5806    0.5008 C   0  0  0  0  0  0  0  0  0  0  0  0
    1.9716    0.5776   -0.7735 N   0  0  0  0  0  0  0  0  0  0  0  0
    0.5551    0.4906   -0.9005 C   0  0  0  0  0  0  0  0  0  0  0  0
   -0.0440    0.4867   -2.1384 C   0  0  0  0  0  0  0  0  0  0  0  0
   -1.4164    0.4006   -2.2685 C   0  0  0  0  0  0  0  0  0  0  0  0
   -2.2531    0.3150   -1.1736 C   0  0  0  0  0  0  0  0  0  0  0  0
   -3.7143    0.2210   -1.3455 C   0  0  0  0  0  0  0  0  0  0  0  0
   -4.1603    0.1498   -2.5179 O   0  0  0  0  0  0  0  0  0  0  0  0
   -4.5936    0.2103   -0.2392 N   0  0  0  0  0  0  0  0  0  0  0  0
   -6.0778    0.1101   -0.4985 C   0  0  1  0  0  0  0  0  0  0  0  0
   -6.5342   -1.1223    0.1878 C   0  0  0  0  0  0  0  0  0  0  0  0
   -7.9335   -1.5094    0.0763 C   0  0  0  0  0  0  0  0  0  0  0  0
   -9.0078   -0.6920    0.5810 C   0  0  0  0  0  0  0  0  0  0  0  0
   -9.9577   -0.3439   -0.1904 O   0  0  0  0  0  0  0  0  0  0  0  0
   -9.0608   -0.2610    1.8890 O   0  0  0  0  0  0  0  0  0  0  0  0
   -6.5967    1.3389    0.1209 C   0  0  0  0  0  0  0  0  0  0  0  0
   -5.8745    2.1138    0.8445 O   0  0  0  0  0  0  0  0  0  0  0  0
   -7.8934    1.7367   -0.0456 O   0  0  0  0  0  0  0  0  0  0  0  0
   -1.6634    0.3182    0.0717 C   0  0  0  0  0  0  0  0  0  0  0  0
   -0.2758    0.4053    0.1952 C   0  0  0  0  0  0  0  0  0  0  0  0
    4.6963   -0.4255   -0.3549 N   0  0  0  0  0  0  0  0  0  0  0  0
   10.6987   -1.9312    0.0082 H   0  0  0  0  0  0  0  0  0  0  0  0
   10.7639   -0.1559    0.0401 H   0  0  0  0  0  0  0  0  0  0  0  0
    8.7085    0.3398    1.5086 H   0  0  0  0  0  0  0  0  0  0  0  0
    6.6731    1.5043    2.2221 H   0  0  0  0  0  0  0  0  0  0  0  0
    4.2735    1.4375    2.4223 H   0  0  0  0  0  0  0  0  0  0  0  0
    4.5641   -0.3680    2.1842 H   0  0  0  0  0  0  0  0  0  0  0  0
    4.4152    1.6354   -0.1017 H   0  0  0  0  0  0  0  0  0  0  0  0
    2.4115   -0.3710    1.0478 H   0  0  0  0  0  0  0  0  0  0  0  0
    2.3113    1.4025    1.1725 H   0  0  0  0  0  0  0  0  0  0  0  0
    2.5618    0.6421   -1.6296 H   0  0  0  0  0  0  0  0  0  0  0  0
    0.6071    0.5543   -3.0120 H   0  0  0  0  0  0  0  0  0  0  0  0
   -1.8793    0.3980   -3.2454 H   0  0  0  0  0  0  0  0  0  0  0  0
   -4.2829    0.2675    0.7453 H   0  0  0  0  0  0  0  0  0  0  0  0
   -6.2487    0.0447   -1.5831 H   0  0  0  0  0  0  0  0  0  0  0  0
   -6.2262   -1.0595    1.2946 H   0  0  0  0  0  0  0  0  0  0  0  0
   -5.9196   -1.9947   -0.2268 H   0  0  0  0  0  0  0  0  0  0  0  0
   -8.0649   -2.5366    0.5868 H   0  0  0  0  0  0  0  0  0  0  0  0
   -8.1366   -1.8157   -1.0143 H   0  0  0  0  0  0  0  0  0  0  0  0
   -9.5993    0.5840    2.0970 H   0  0  0  0  0  0  0  0  0  0  0  0
   -8.4628    2.1667    0.6735 H   0  0  0  0  0  0  0  0  0  0  0  0
   -2.2834    0.2526    0.9549 H   0  0  0  0  0  0  0  0  0  0  0  0
    0.1366    0.4046    1.1721 H   0  0  0  0  0  0  0  0  0  0  0  0
    4.1472   -1.1109   -0.9211 H   0  0  0  0  0  0  0  0  0  0  0  0
  1  2  1  0
  2  3  2  0
  3  4  1  0
  4  5  2  0
  4  6  1  0
  6  7  2  0
  7  8  1  0
  7  9  1  0
  9 10  1  0
 10 11  1  0
 11 12  1  0
 12 13  1  0
 13 14  1  0
 14 15  2  0
 15 16  1  0
 16 17  2  0
 17 18  1  0
 18 19  2  0
 18 20  1  0
 20 21  1  0
 21 22  1  0
 22 23  1  0
 23 24  1  0
 24 25  2  0
 24 26  1  0
 21 27  1  0
 27 28  2  0
 27 29  1  0
 17 30  1  0
 30 31  2  0
 11 32  1  0
  8  2  1  0
 31 14  1  0
 32  6  1  0
  1 33  1  0
  1 34  1  0
  8 35  1  0
  9 36  1  0
 10 37  1  0
 10 38  1  0
 11 39  1  6
 12 40  1  0
 12 41  1  0
 13 42  1  0
 15 43  1  0
 16 44  1  0
 20 45  1  0
 21 46  1  6
 22 47  1  0
 22 48  1  0
 23 49  1  0
 23 50  1  0
 26 51  1  0
 29 52  1  0
 30 53  1  0
 31 54  1  0
 32 55  1  0
M  END
$$$$

     RDKit          3D

 55 57  0  0  0  0  0  0  0  0999 V2000
   -6.7690    1.8698   -3.3097 N   0  0  0  0  0  0  0  0  0  0  0  0
   -6.3664    1.2073   -2.0980 C   0  0  0  0  0  0  0  0  0  0  0  0
   -6.3444   -0.1390   -2.0025 N   0  0  0  0  0  0  0  0  0  0  0  0
   -5.9627   -0.7886   -0.8751 C   0  0  0  0  0  0  0  0  0  0  0  0
   -5.9415   -2.0269   -0.7852 O   0  0  0  0  0  0  0  0  0  0  0  0
   -5.5753   -0.0586    0.2370 C   0  0  0  0  0  0  0  0  0  0  0  0
   -5.5981    1.3112    0.1384 C   0  0  0  0  0  0  0  0  0  0  0  0
   -5.9896    1.9097   -1.0160 N   0  0  0  0  0  0  0  0  0  0  0  0
   -5.2036    2.1148    1.2686 N   0  0  0  0  0  0  0  0  0  0  0  0
   -5.2022    1.4895    2.5804 C   0  0  0  0  0  0  0  0  0  0  0  0
   -4.4510    0.1651    2.4191 C   0  0  2  0  0  0  0  0  0  0  0  0
   -3.1214    0.5074    1.7713 C   0  0  0  0  0  0  0  0  0  0  0  0
   -2.3075   -0.6735    1.5747 N   0  0  0  0  0  0  0  0  0  0  0  0
   -1.0481   -0.5223    0.9453 C   0  0  0  0  0  0  0  0  0  0  0  0
   -0.2065   -1.6091    0.8554 C   0  0  0  0  0  0  0  0  0  0  0  0
    1.0105   -1.4526    0.2342 C   0  0  0  0  0  0  0  0  0  0  0  0
    1.4436   -0.2710   -0.3070 C   0  0  0  0  0  0  0  0  0  0  0  0
    2.7482   -0.1824   -0.9403 C   0  0  0  0  0  0  0  0  0  0  0  0
    2.7939    0.2493   -2.1210 O   0  0  0  0  0  0  0  0  0  0  0  0
    3.9249   -0.5630   -0.2654 N   0  0  0  0  0  0  0  0  0  0  0  0
    5.2585   -0.4897   -0.8850 C   0  0  1  0  0  0  0  0  0  0  0  0
    5.9537    0.7004   -0.3137 C   0  0  0  0  0  0  0  0  0  0  0  0
    7.3476    0.9626   -0.7239 C   0  0  0  0  0  0  0  0  0  0  0  0
    8.3449   -0.0096   -0.2330 C   0  0  0  0  0  0  0  0  0  0  0  0
    8.0213   -0.7991    0.7215 O   0  0  0  0  0  0  0  0  0  0  0  0
    9.6141   -0.1266   -0.7380 O   0  0  0  0  0  0  0  0  0  0  0  0
    5.9441   -1.7511   -0.9729 C   0  0  0  0  0  0  0  0  0  0  0  0
    5.5703   -2.8063   -0.3528 O   0  0  0  0  0  0  0  0  0  0  0  0
    7.0805   -1.9068   -1.7660 O   0  0  0  0  0  0  0  0  0  0  0  0
    0.5969    0.8121   -0.2140 C   0  0  0  0  0  0  0  0  0  0  0  0
   -0.6503    0.6869    0.4131 C   0  0  0  0  0  0  0  0  0  0  0  0
   -5.1634   -0.6516    1.4585 N   0  0  0  0  0  0  0  0  0  0  0  0
   -6.1296    2.0287   -4.0951 H   0  0  0  0  0  0  0  0  0  0  0  0
   -7.7591    2.1886   -3.3545 H   0  0  0  0  0  0  0  0  0  0  0  0
   -5.9873    2.9461   -1.0315 H   0  0  0  0  0  0  0  0  0  0  0  0
   -4.9450    3.0894    1.0752 H   0  0  0  0  0  0  0  0  0  0  0  0
   -4.6025    2.0913    3.2982 H   0  0  0  0  0  0  0  0  0  0  0  0
   -6.2333    1.3254    2.9682 H   0  0  0  0  0  0  0  0  0  0  0  0
   -4.2769   -0.3407    3.3803 H   0  0  0  0  0  0  0  0  0  0  0  0
   -3.2491    0.9919    0.7973 H   0  0  0  0  0  0  0  0  0  0  0  0
   -2.6151    1.2412    2.4436 H   0  0  0  0  0  0  0  0  0  0  0  0
   -2.6494   -1.6046    1.8903 H   0  0  0  0  0  0  0  0  0  0  0  0
   -0.5410   -2.5441    1.2812 H   0  0  0  0  0  0  0  0  0  0  0  0
    1.6544   -2.3309    0.1786 H   0  0  0  0  0  0  0  0  0  0  0  0
    3.8882   -0.9104    0.7202 H   0  0  0  0  0  0  0  0  0  0  0  0
    5.0250   -0.1841   -1.9678 H   0  0  0  0  0  0  0  0  0  0  0  0
    5.9436    0.6814    0.8186 H   0  0  0  0  0  0  0  0  0  0  0  0
    5.3307    1.6252   -0.5363 H   0  0  0  0  0  0  0  0  0  0  0  0
    7.4500    0.9640   -1.8532 H   0  0  0  0  0  0  0  0  0  0  0  0
    7.6354    2.0118   -0.4458 H   0  0  0  0  0  0  0  0  0  0  0  0
   10.3777   -0.5944   -0.2761 H   0  0  0  0  0  0  0  0  0  0  0  0
    7.7419   -2.6371   -1.4839 H   0  0  0  0  0  0  0  0  0  0  0  0
    0.8718    1.7825   -0.6195 H   0  0  0  0  0  0  0  0  0  0  0  0
   -1.3015    1.5359    0.4801 H   0  0  0  0  0  0  0  0  0  0  0  0
   -5.3807   -1.6551    1.6339 H   0  0  0  0  0  0  0  0  0  0  0  0
  1  2  1  0
  2  3  2  0
  3  4  1  0
  4  5  2  0
  4  6  1  0
  6  7  2  0
  7  8  1  0
  7  9  1  0
  9 10  1  0
 10 11  1  0
 11 12  1  0
 12 13  1  0
 13 14  1  0
 14 15  2  0
 15 16  1  0
 16 17  2  0
 17 18  1  0
 18 19  2  0
 18 20  1  0
 20 21  1  0
 21 22  1  0
 22 23  1  0
 23 24  1  0
 24 25  2  0
 24 26  1  0
 21 27  1  0
 27 28  2  0
 27 29  1  0
 17 30  1  0
 30 31  2  0
 11 32  1  0
  8  2  1  0
 31 14  1  0
 32  6  1  0
  1 33  1  0
  1 34  1  0
  8 35  1  0
  9 36  1  0
 10 37  1  0
 10 38  1  0
 11 39  1  1
 12 40  1  0
 12 41  1  0
 13 42  1  0
 15 43  1  0
 16 44  1  0
 20 45  1  0
 21 46  1  6
 22 47  1  0
 22 48  1  0
 23 49  1  0
 23 50  1  0
 26 51  1  0
 29 52  1  0
 30 53  1  0
 31 54  1  0
 32 55  1  0
M  END
$$$$

     RDKit          3D

 55 57  0  0  0  0  0  0  0  0999 V2000
    9.8466   -0.1202    1.8772 N   0  0  0  0  0  0  0  0  0  0  0  0
    8.5002   -0.2058    1.4278 C   0  0  0  0  0  0  0  0  0  0  0  0
    7.5564    0.4045    2.1846 N   0  0  0  0  0  0  0  0  0  0  0  0
    6.2619    0.3931    1.8657 C   0  0  0  0  0  0  0  0  0  0  0  0
    5.3602    0.9532    2.5521 O   0  0  0  0  0  0  0  0  0  0  0  0
    5.8673   -0.2633    0.7246 C   0  0  0  0  0  0  0  0  0  0  0  0
    6.8394   -0.8794   -0.0350 C   0  0  0  0  0  0  0  0  0  0  0  0
    8.1502   -0.8485    0.3187 N   0  0  0  0  0  0  0  0  0  0  0  0
    6.4618   -1.5688   -1.2248 N   0  0  0  0  0  0  0  0  0  0  0  0
    5.2329   -1.1374   -1.8756 C   0  0  0  0  0  0  0  0  0  0  0  0
    4.1517   -1.1499   -0.8294 C   0  0  2  0  0  0  0  0  0  0  0  0
    2.8363   -0.6500   -1.3488 C   0  0  0  0  0  0  0  0  0  0  0  0
    1.8480   -0.6935   -0.2805 N   0  0  0  0  0  0  0  0  0  0  0  0
    0.5022   -0.2750   -0.4901 C   0  0  0  0  0  0  0  0  0  0  0  0
   -0.3982   -0.3334    0.5475 C   0  0  0  0  0  0  0  0  0  0  0  0
   -1.7197    0.0764    0.3455 C   0  0  0  0  0  0  0  0  0  0  0  0
   -2.1396    0.5395   -0.8777 C   0  0  0  0  0  0  0  0  0  0  0  0
   -3.5109    0.9781   -1.1345 C   0  0  0  0  0  0  0  0  0  0  0  0
   -3.8707    1.4001   -2.2674 O   0  0  0  0  0  0  0  0  0  0  0  0
   -4.5215    0.9589   -0.1341 N   0  0  0  0  0  0  0  0  0  0  0  0
   -5.8981    1.4053   -0.4134 C   0  0  1  0  0  0  0  0  0  0  0  0
   -6.7397    0.1574   -0.2840 C   0  0  0  0  0  0  0  0  0  0  0  0
   -8.1961    0.3615   -0.5285 C   0  0  0  0  0  0  0  0  0  0  0  0
   -8.8479   -0.9857   -0.3610 C   0  0  0  0  0  0  0  0  0  0  0  0
   -8.2018   -2.0237   -0.0703 O   0  0  0  0  0  0  0  0  0  0  0  0
  -10.2284   -1.1446   -0.5248 O   0  0  0  0  0  0  0  0  0  0  0  0
   -6.2582    2.4783    0.5133 C   0  0  0  0  0  0  0  0  0  0  0  0
   -5.4288    2.8546    1.3807 O   0  0  0  0  0  0  0  0  0  0  0  0
   -7.4961    3.0905    0.4550 O   0  0  0  0  0  0  0  0  0  0  0  0
   -1.2357    0.5970   -1.9153 C   0  0  0  0  0  0  0  0  0  0  0  0
    0.0894    0.1886   -1.7213 C   0  0  0  0  0  0  0  0  0  0  0  0
    4.5064   -0.3214    0.3155 N   0  0  0  0  0  0  0  0  0  0  0  0
   10.0552   -0.0799    2.8988 H   0  0  0  0  0  0  0  0  0  0  0  0
   10.6645   -0.0944    1.2318 H   0  0  0  0  0  0  0  0  0  0  0  0
    8.8840   -1.3301   -0.2809 H   0  0  0  0  0  0  0  0  0  0  0  0
    7.0597   -2.3421   -1.5868 H   0  0  0  0  0  0  0  0  0  0  0  0
    4.9602   -1.8999   -2.6361 H   0  0  0  0  0  0  0  0  0  0  0  0
    5.3899   -0.1334   -2.3137 H   0  0  0  0  0  0  0  0  0  0  0  0
    4.0743   -2.2155   -0.4718 H   0  0  0  0  0  0  0  0  0  0  0  0
    2.4809   -1.2399   -2.2199 H   0  0  0  0  0  0  0  0  0  0  0  0
    2.9688    0.4231   -1.6024 H   0  0  0  0  0  0  0  0  0  0  0  0
    2.1329   -1.0422    0.6701 H   0  0  0  0  0  0  0  0  0  0  0  0
   -0.0433   -0.7014    1.4998 H   0  0  0  0  0  0  0  0  0  0  0  0
   -2.3982    0.0224    1.1620 H   0  0  0  0  0  0  0  0  0  0  0  0
   -4.3103    0.6252    0.8294 H   0  0  0  0  0  0  0  0  0  0  0  0
   -5.9812    1.7328   -1.4731 H   0  0  0  0  0  0  0  0  0  0  0  0
   -6.5361   -0.3261    0.7138 H   0  0  0  0  0  0  0  0  0  0  0  0
   -6.3459   -0.5635   -1.0374 H   0  0  0  0  0  0  0  0  0  0  0  0
   -8.6038    1.0768    0.2188 H   0  0  0  0  0  0  0  0  0  0  0  0
   -8.3481    0.6638   -1.5657 H   0  0  0  0  0  0  0  0  0  0  0  0
  -10.6420   -2.0450   -0.7610 H   0  0  0  0  0  0  0  0  0  0  0  0
   -7.8025    3.7917    1.1215 H   0  0  0  0  0  0  0  0  0  0  0  0
   -1.5535    0.9596   -2.8832 H   0  0  0  0  0  0  0  0  0  0  0  0
    0.7744    0.2469   -2.5590 H   0  0  0  0  0  0  0  0  0  0  0  0
    3.8006    0.2348    0.8521 H   0  0  0  0  0  0  0  0  0  0  0  0
  1  2  1  0
  2  3  2  0
  3  4  1  0
  4  5  2  0
  4  6  1  0
  6  7  2  0
  7  8  1  0
  7  9  1  0
  9 10  1  0
 10 11  1  0
 11 12  1  0
 12 13  1  0
 13 14  1  0
 14 15  2  0
 15 16  1  0
 16 17  2  0
 17 18  1  0
 18 19  2  0
 18 20  1  0
 20 21  1  0
 21 22  1  0
 22 23  1  0
 23 24  1  0
 24 25  2  0
 24 26  1  0
 21 27  1  0
 27 28  2  0
 27 29  1  0
 17 30  1  0
 30 31  2  0
 11 32  1  0
  8  2  1  0
 31 14  1  0
 32  6  1  0
  1 33  1  0
  1 34  1  0
  8 35  1  0
  9 36  1  0
 10 37  1  0
 10 38  1  0
 11 39  1  1
 12 40  1  0
 12 41  1  0
 13 42  1  0
 15 43  1  0
 16 44  1  0
 20 45  1  0
 21 46  1  6
 22 47  1  0
 22 48  1  0
 23 49  1  0
 23 50  1  0
 26 51  1  0
 29 52  1  0
 30 53  1  0
 31 54  1  0
 32 55  1  0
M  END
$$$$

     RDKit          3D

 55 57  0  0  0  0  0  0  0  0999 V2000
  -10.1065    0.6967    0.8722 N   0  0  0  0  0  0  0  0  0  0  0  0
   -8.7140    0.4223    0.6912 C   0  0  0  0  0  0  0  0  0  0  0  0
   -7.8375    0.6127    1.6931 N   0  0  0  0  0  0  0  0  0  0  0  0
   -6.5323    0.3494    1.5049 C   0  0  0  0  0  0  0  0  0  0  0  0
   -5.6812    0.5219    2.4384 O   0  0  0  0  0  0  0  0  0  0  0  0
   -6.0207   -0.1205    0.3050 C   0  0  0  0  0  0  0  0  0  0  0  0
   -6.9418   -0.3088   -0.7109 C   0  0  0  0  0  0  0  0  0  0  0  0
   -8.2344   -0.0330   -0.4788 N   0  0  0  0  0  0  0  0  0  0  0  0
   -6.4289   -0.7901   -1.9414 N   0  0  0  0  0  0  0  0  0  0  0  0
   -5.0857   -1.3702   -2.0402 C   0  0  0  0  0  0  0  0  0  0  0  0
   -4.1604   -0.4772   -1.2603 C   0  0  2  0  0  0  0  0  0  0  0  0
   -2.7272   -0.9478   -1.3146 C   0  0  0  0  0  0  0  0  0  0  0  0
   -1.8869   -0.0334   -0.5400 N   0  0  0  0  0  0  0  0  0  0  0  0
   -0.5001   -0.2180   -0.4008 C   0  0  0  0  0  0  0  0  0  0  0  0
    0.1187   -1.3145   -0.9796 C   0  0  0  0  0  0  0  0  0  0  0  0
    1.4756   -1.4398   -0.8121 C   0  0  0  0  0  0  0  0  0  0  0  0
    2.2548   -0.5409   -0.1041 C   0  0  0  0  0  0  0  0  0  0  0  0
    3.6901   -0.7263    0.0476 C   0  0  0  0  0  0  0  0  0  0  0  0
    4.1633   -1.8582   -0.2749 O   0  0  0  0  0  0  0  0  0  0  0  0
    4.5617    0.2734    0.5265 N   0  0  0  0  0  0  0  0  0  0  0  0
    6.0116    0.0796    0.6794 C   0  0  1  0  0  0  0  0  0  0  0  0
    6.7435    0.8223   -0.3859 C   0  0  0  0  0  0  0  0  0  0  0  0
    8.2373    0.7913   -0.3261 C   0  0  0  0  0  0  0  0  0  0  0  0
    8.7860    1.5490    0.8230 C   0  0  0  0  0  0  0  0  0  0  0  0
    8.0288    2.3622    1.4384 O   0  0  0  0  0  0  0  0  0  0  0  0
   10.0757    1.4392    1.2859 O   0  0  0  0  0  0  0  0  0  0  0  0
    6.4814    0.1075    2.0409 C   0  0  0  0  0  0  0  0  0  0  0  0
    5.6731    0.5389    2.9399 O   0  0  0  0  0  0  0  0  0  0  0  0
    7.7153   -0.2860    2.5279 O   0  0  0  0  0  0  0  0  0  0  0  0
    1.6010    0.5314    0.4529 C   0  0  0  0  0  0  0  0  0  0  0  0
    0.2313    0.7013    0.3116 C   0  0  0  0  0  0  0  0  0  0  0  0
   -4.6381   -0.3941    0.1175 N   0  0  0  0  0  0  0  0  0  0  0  0
  -10.6933    0.2846    1.6257 H   0  0  0  0  0  0  0  0  0  0  0  0
  -10.5702    1.3507    0.2106 H   0  0  0  0  0  0  0  0  0  0  0  0
   -8.9133   -0.1816   -1.2597 H   0  0  0  0  0  0  0  0  0  0  0  0
   -7.0560   -0.7132   -2.7813 H   0  0  0  0  0  0  0  0  0  0  0  0
   -4.8255   -1.3404   -3.1250 H   0  0  0  0  0  0  0  0  0  0  0  0
   -5.0898   -2.3771   -1.6091 H   0  0  0  0  0  0  0  0  0  0  0  0
   -4.2152    0.5374   -1.7062 H   0  0  0  0  0  0  0  0  0  0  0  0
   -2.4279   -1.0024   -2.3687 H   0  0  0  0  0  0  0  0  0  0  0  0
   -2.6543   -1.9576   -0.8526 H   0  0  0  0  0  0  0  0  0  0  0  0
   -2.3351    0.7838   -0.0756 H   0  0  0  0  0  0  0  0  0  0  0  0
   -0.4638   -2.0525   -1.5512 H   0  0  0  0  0  0  0  0  0  0  0  0
    1.9857   -2.2806   -1.2495 H   0  0  0  0  0  0  0  0  0  0  0  0
    4.1453    1.2029    0.7833 H   0  0  0  0  0  0  0  0  0  0  0  0
    6.1299   -1.0290    0.3500 H   0  0  0  0  0  0  0  0  0  0  0  0
    6.3586    1.8714   -0.4006 H   0  0  0  0  0  0  0  0  0  0  0  0
    6.4489    0.4423   -1.4198 H   0  0  0  0  0  0  0  0  0  0  0  0
    8.6930    1.1783   -1.2759 H   0  0  0  0  0  0  0  0  0  0  0  0
    8.6270   -0.2604   -0.2557 H   0  0  0  0  0  0  0  0  0  0  0  0
   10.4448    2.1335    1.9296 H   0  0  0  0  0  0  0  0  0  0  0  0
    8.1715    0.1591    3.3158 H   0  0  0  0  0  0  0  0  0  0  0  0
    2.1559    1.2569    1.0136 H   0  0  0  0  0  0  0  0  0  0  0  0
   -0.2461    1.5776    0.7791 H   0  0  0  0  0  0  0  0  0  0  0  0
   -4.0238   -0.5240    0.9483 H   0  0  0  0  0  0  0  0  0  0  0  0
  1  2  1  0
  2  3  2  0
  3  4  1  0
  4  5  2  0
  4  6  1  0
  6  7  2  0
  7  8  1  0
  7  9  1  0
  9 10  1  0
 10 11  1  0
 11 12  1  0
 12 13  1  0
 13 14  1  0
 14 15  2  0
 15 16  1  0
 16 17  2  0
 17 18  1  0
 18 19  2  0
 18 20  1  0
 20 21  1  0
 21 22  1  0
 22 23  1  0
 23 24  1  0
 24 25  2  0
 24 26  1  0
 21 27  1  0
 27 28  2  0
 27 29  1  0
 17 30  1  0
 30 31  2  0
 11 32  1  0
  8  2  1  0
 31 14  1  0
 32  6  1  0
  1 33  1  0
  1 34  1  0
  8 35  1  0
  9 36  1  0
 10 37  1  0
 10 38  1  0
 11 39  1  6
 12 40  1  0
 12 41  1  0
 13 42  1  0
 15 43  1  0
 16 44  1  0
 20 45  1  0
 21 46  1  6
 22 47  1  0
 22 48  1  0
 23 49  1  0
 23 50  1  0
 26 51  1  0
 29 52  1  0
 30 53  1  0
 31 54  1  0
 32 55  1  0
M  END
$$$$

     RDKit          3D

 55 57  0  0  0  0  0  0  0  0999 V2000
   -9.1930    1.0486    0.0904 N   0  0  0  0  0  0  0  0  0  0  0  0
   -7.8305    0.7721   -0.2380 C   0  0  0  0  0  0  0  0  0  0  0  0
   -7.2180    1.4280   -1.2377 N   0  0  0  0  0  0  0  0  0  0  0  0
   -5.9353    1.1357   -1.5125 C   0  0  0  0  0  0  0  0  0  0  0  0
   -5.2981    1.7048   -2.4291 O   0  0  0  0  0  0  0  0  0  0  0  0
   -5.2455    0.1756   -0.7839 C   0  0  0  0  0  0  0  0  0  0  0  0
   -5.9187   -0.4630    0.2250 C   0  0  0  0  0  0  0  0  0  0  0  0
   -7.2121   -0.1670    0.5007 N   0  0  0  0  0  0  0  0  0  0  0  0
   -5.2247   -1.4541    0.9854 N   0  0  0  0  0  0  0  0  0  0  0  0
   -3.8815   -1.8840    0.6735 C   0  0  0  0  0  0  0  0  0  0  0  0
   -3.0886   -0.7373    0.0352 C   0  0  2  0  0  0  0  0  0  0  0  0
   -2.9799    0.3415    1.0792 C   0  0  0  0  0  0  0  0  0  0  0  0
   -2.2345    1.4472    0.5260 N   0  0  0  0  0  0  0  0  0  0  0  0
   -0.8583    1.2629    0.2445 C   0  0  0  0  0  0  0  0  0  0  0  0
   -0.1733    2.2072   -0.5095 C   0  0  0  0  0  0  0  0  0  0  0  0
    1.1622    2.0711   -0.7915 C   0  0  0  0  0  0  0  0  0  0  0  0
    1.9130    0.9837   -0.3428 C   0  0  0  0  0  0  0  0  0  0  0  0
    3.3286    0.8628   -0.6503 C   0  0  0  0  0  0  0  0  0  0  0  0
    3.9093    1.8784   -1.1206 O   0  0  0  0  0  0  0  0  0  0  0  0
    3.9701   -0.3702   -0.4100 N   0  0  0  0  0  0  0  0  0  0  0  0
    5.4032   -0.5132   -0.7140 C   0  0  1  0  0  0  0  0  0  0  0  0
    6.1039   -0.9595    0.5435 C   0  0  0  0  0  0  0  0  0  0  0  0
    7.5895   -1.1303    0.3513 C   0  0  0  0  0  0  0  0  0  0  0  0
    8.2223    0.1487   -0.0440 C   0  0  0  0  0  0  0  0  0  0  0  0
    8.1284    0.5294   -1.2336 O   0  0  0  0  0  0  0  0  0  0  0  0
    8.9213    0.9415    0.8722 O   0  0  0  0  0  0  0  0  0  0  0  0
    5.5107   -1.5147   -1.7997 C   0  0  0  0  0  0  0  0  0  0  0  0
    4.4621   -2.0281   -2.2553 O   0  0  0  0  0  0  0  0  0  0  0  0
    6.6970   -1.9453   -2.3701 O   0  0  0  0  0  0  0  0  0  0  0  0
    1.2217    0.0586    0.4023 C   0  0  0  0  0  0  0  0  0  0  0  0
   -0.1359    0.1838    0.6972 C   0  0  0  0  0  0  0  0  0  0  0  0
   -3.9030   -0.1581   -1.0443 N   0  0  0  0  0  0  0  0  0  0  0  0
   -9.5010    1.9780    0.4085 H   0  0  0  0  0  0  0  0  0  0  0  0
   -9.8988    0.2880    0.0070 H   0  0  0  0  0  0  0  0  0  0  0  0
   -7.6499   -0.6958    1.2805 H   0  0  0  0  0  0  0  0  0  0  0  0
   -5.7028   -1.8827    1.7939 H   0  0  0  0  0  0  0  0  0  0  0  0
   -3.3512   -2.1281    1.6160 H   0  0  0  0  0  0  0  0  0  0  0  0
   -3.8820   -2.7744    0.0213 H   0  0  0  0  0  0  0  0  0  0  0  0
   -2.1524   -1.1057   -0.3700 H   0  0  0  0  0  0  0  0  0  0  0  0
   -2.4950   -0.0354    2.0237 H   0  0  0  0  0  0  0  0  0  0  0  0
   -3.9560    0.7385    1.3871 H   0  0  0  0  0  0  0  0  0  0  0  0
   -2.6584    2.3792    0.3225 H   0  0  0  0  0  0  0  0  0  0  0  0
   -0.7075    3.0803   -0.8889 H   0  0  0  0  0  0  0  0  0  0  0  0
    1.6990    2.8103   -1.3817 H   0  0  0  0  0  0  0  0  0  0  0  0
    3.5289   -1.2287   -0.0277 H   0  0  0  0  0  0  0  0  0  0  0  0
    5.8135    0.4278   -1.0876 H   0  0  0  0  0  0  0  0  0  0  0  0
    5.6677   -1.9043    0.9283 H   0  0  0  0  0  0  0  0  0  0  0  0
    5.9685   -0.1819    1.3232 H   0  0  0  0  0  0  0  0  0  0  0  0
    7.8465   -1.9574   -0.3415 H   0  0  0  0  0  0  0  0  0  0  0  0
    8.0192   -1.4327    1.3516 H   0  0  0  0  0  0  0  0  0  0  0  0
    8.8217    1.9420    0.8271 H   0  0  0  0  0  0  0  0  0  0  0  0
    6.7583   -2.7927   -2.9275 H   0  0  0  0  0  0  0  0  0  0  0  0
    1.7460   -0.8035    0.7806 H   0  0  0  0  0  0  0  0  0  0  0  0
   -0.6200   -0.5846    1.3068 H   0  0  0  0  0  0  0  0  0  0  0  0
   -3.5068    0.0070   -1.9857 H   0  0  0  0  0  0  0  0  0  0  0  0
  1  2  1  0
  2  3  2  0
  3  4  1  0
  4  5  2  0
  4  6  1  0
  6  7  2  0
  7  8  1  0
  7  9  1  0
  9 10  1  0
 10 11  1  0
 11 12  1  0
 12 13  1  0
 13 14  1  0
 14 15  2  0
 15 16  1  0
 16 17  2  0
 17 18  1  0
 18 19  2  0
 18 20  1  0
 20 21  1  0
 21 22  1  0
 22 23  1  0
 23 24  1  0
 24 25  2  0
 24 26  1  0
 21 27  1  0
 27 28  2  0
 27 29  1  0
 17 30  1  0
 30 31  2  0
 11 32  1  0
  8  2  1  0
 31 14  1  0
 32  6  1  0
  1 33  1  0
  1 34  1  0
  8 35  1  0
  9 36  1  0
 10 37  1  0
 10 38  1  0
 11 39  1  6
 12 40  1  0
 12 41  1  0
 13 42  1  0
 15 43  1  0
 16 44  1  0
 20 45  1  0
 21 46  1  6
 22 47  1  0
 22 48  1  0
 23 49  1  0
 23 50  1  0
 26 51  1  0
 29 52  1  0
 30 53  1  0
 31 54  1  0
 32 55  1  0
M  END
$$$$

     RDKit          3D

 55 57  0  0  0  0  0  0  0  0999 V2000
    9.9759   -0.8288    1.3937 N   0  0  0  0  0  0  0  0  0  0  0  0
    8.6154   -0.8277    0.9950 C   0  0  0  0  0  0  0  0  0  0  0  0
    8.1184   -1.9668    0.4663 N   0  0  0  0  0  0  0  0  0  0  0  0
    6.8347   -2.0019    0.0786 C   0  0  0  0  0  0  0  0  0  0  0  0
    6.3265   -3.0425   -0.4199 O   0  0  0  0  0  0  0  0  0  0  0  0
    6.0651   -0.8476    0.2411 C   0  0  0  0  0  0  0  0  0  0  0  0
    6.5757    0.3138    0.7814 C   0  0  0  0  0  0  0  0  0  0  0  0
    7.8725    0.2848    1.1514 N   0  0  0  0  0  0  0  0  0  0  0  0
    5.7477    1.4345    0.9170 N   0  0  0  0  0  0  0  0  0  0  0  0
    4.3122    1.4231    0.6279 C   0  0  0  0  0  0  0  0  0  0  0  0
    3.9830    0.4059   -0.4085 C   0  0  2  0  0  0  0  0  0  0  0  0
    2.5300    0.0623   -0.5136 C   0  0  0  0  0  0  0  0  0  0  0  0
    1.6836    1.1617   -0.8334 N   0  0  0  0  0  0  0  0  0  0  0  0
    0.3016    0.9560   -1.0232 C   0  0  0  0  0  0  0  0  0  0  0  0
   -0.5616    1.9787   -1.3343 C   0  0  0  0  0  0  0  0  0  0  0  0
   -1.9168    1.7407   -1.5234 C   0  0  0  0  0  0  0  0  0  0  0  0
   -2.4487    0.4684   -1.4059 C   0  0  0  0  0  0  0  0  0  0  0  0
   -3.8615    0.1905   -1.6113 C   0  0  0  0  0  0  0  0  0  0  0  0
   -4.2921    0.0615   -2.7896 O   0  0  0  0  0  0  0  0  0  0  0  0
   -4.8227    0.0473   -0.5812 N   0  0  0  0  0  0  0  0  0  0  0  0
   -6.2277   -0.2350   -0.8283 C   0  0  1  0  0  0  0  0  0  0  0  0
   -6.6608   -1.5323   -0.2664 C   0  0  0  0  0  0  0  0  0  0  0  0
   -6.4855   -1.7805    1.1729 C   0  0  0  0  0  0  0  0  0  0  0  0
   -7.1760   -0.9259    2.1345 C   0  0  0  0  0  0  0  0  0  0  0  0
   -6.8953   -0.9991    3.3961 O   0  0  0  0  0  0  0  0  0  0  0  0
   -8.1454   -0.0051    1.8242 O   0  0  0  0  0  0  0  0  0  0  0  0
   -7.0450    0.9422   -0.5652 C   0  0  0  0  0  0  0  0  0  0  0  0
   -6.4844    1.9472   -0.0038 O   0  0  0  0  0  0  0  0  0  0  0  0
   -8.3895    1.1012   -0.8680 O   0  0  0  0  0  0  0  0  0  0  0  0
   -1.5860   -0.5592   -1.0936 C   0  0  0  0  0  0  0  0  0  0  0  0
   -0.2175   -0.3127   -0.9038 C   0  0  0  0  0  0  0  0  0  0  0  0
    4.7032   -0.8490   -0.1583 N   0  0  0  0  0  0  0  0  0  0  0  0
   10.5853   -1.6564    1.3136 H   0  0  0  0  0  0  0  0  0  0  0  0
   10.4075    0.0346    1.7896 H   0  0  0  0  0  0  0  0  0  0  0  0
    8.2789    1.1592    1.5648 H   0  0  0  0  0  0  0  0  0  0  0  0
    6.1633    2.3415    1.2422 H   0  0  0  0  0  0  0  0  0  0  0  0
    3.7217    1.2605    1.5476 H   0  0  0  0  0  0  0  0  0  0  0  0
    4.0370    2.4267    0.2308 H   0  0  0  0  0  0  0  0  0  0  0  0
    4.3454    0.7653   -1.4019 H   0  0  0  0  0  0  0  0  0  0  0  0
    2.3755   -0.7126   -1.2951 H   0  0  0  0  0  0  0  0  0  0  0  0
    2.1675   -0.3907    0.4405 H   0  0  0  0  0  0  0  0  0  0  0  0
    2.0558    2.1290   -0.9314 H   0  0  0  0  0  0  0  0  0  0  0  0
   -0.1633    2.9881   -1.4320 H   0  0  0  0  0  0  0  0  0  0  0  0
   -2.5567    2.5645   -1.7656 H   0  0  0  0  0  0  0  0  0  0  0  0
   -4.4962    0.1517    0.4041 H   0  0  0  0  0  0  0  0  0  0  0  0
   -6.3082   -0.3832   -1.9747 H   0  0  0  0  0  0  0  0  0  0  0  0
   -6.2751   -2.3696   -0.9113 H   0  0  0  0  0  0  0  0  0  0  0  0
   -7.7827   -1.5912   -0.4639 H   0  0  0  0  0  0  0  0  0  0  0  0
   -6.8820   -2.8310    1.3698 H   0  0  0  0  0  0  0  0  0  0  0  0
   -5.3991   -1.7958    1.4804 H   0  0  0  0  0  0  0  0  0  0  0  0
   -8.5493    0.6129    2.5244 H   0  0  0  0  0  0  0  0  0  0  0  0
   -8.8084    2.0043   -1.0931 H   0  0  0  0  0  0  0  0  0  0  0  0
   -1.9876   -1.5634   -0.9970 H   0  0  0  0  0  0  0  0  0  0  0  0
    0.4075   -1.1631   -0.6623 H   0  0  0  0  0  0  0  0  0  0  0  0
    4.2342   -1.7870   -0.2683 H   0  0  0  0  0  0  0  0  0  0  0  0
  1  2  1  0
  2  3  2  0
  3  4  1  0
  4  5  2  0
  4  6  1  0
  6  7  2  0
  7  8  1  0
  7  9  1  0
  9 10  1  0
 10 11  1  0
 11 12  1  0
 12 13  1  0
 13 14  1  0
 14 15  2  0
 15 16  1  0
 16 17  2  0
 17 18  1  0
 18 19  2  0
 18 20  1  0
 20 21  1  0
 21 22  1  0
 22 23  1  0
 23 24  1  0
 24 25  2  0
 24 26  1  0
 21 27  1  0
 27 28  2  0
 27 29  1  0
 17 30  1  0
 30 31  2  0
 11 32  1  0
  8  2  1  0
 31 14  1  0
 32  6  1  0
  1 33  1  0
  1 34  1  0
  8 35  1  0
  9 36  1  0
 10 37  1  0
 10 38  1  0
 11 39  1  6
 12 40  1  0
 12 41  1  0
 13 42  1  0
 15 43  1  0
 16 44  1  0
 20 45  1  0
 21 46  1  6
 22 47  1  0
 22 48  1  0
 23 49  1  0
 23 50  1  0
 26 51  1  0
 29 52  1  0
 30 53  1  0
 31 54  1  0
 32 55  1  0
M  END
$$$$

     RDKit          3D

 55 57  0  0  0  0  0  0  0  0999 V2000
    8.0948   -1.6718   -2.8127 N   0  0  0  0  0  0  0  0  0  0  0  0
    7.3176   -1.2713   -1.7009 C   0  0  0  0  0  0  0  0  0  0  0  0
    7.8931   -0.7964   -0.5757 N   0  0  0  0  0  0  0  0  0  0  0  0
    7.1957   -0.4079    0.4921 C   0  0  0  0  0  0  0  0  0  0  0  0
    7.7561    0.0367    1.5432 O   0  0  0  0  0  0  0  0  0  0  0  0
    5.8182   -0.4763    0.4933 C   0  0  0  0  0  0  0  0  0  0  0  0
    5.2146   -0.9573   -0.6439 C   0  0  0  0  0  0  0  0  0  0  0  0
    5.9750   -1.3363   -1.6956 N   0  0  0  0  0  0  0  0  0  0  0  0
    3.7989   -1.0358   -0.6667 N   0  0  0  0  0  0  0  0  0  0  0  0
    2.9606   -0.3196    0.2928 C   0  0  0  0  0  0  0  0  0  0  0  0
    3.5737   -0.3145    1.6468 C   0  0  2  0  0  0  0  0  0  0  0  0
    2.9306    0.5617    2.6767 C   0  0  0  0  0  0  0  0  0  0  0  0
    1.5762    0.2813    2.9867 N   0  0  0  0  0  0  0  0  0  0  0  0
    0.4802    0.6218    2.1587 C   0  0  0  0  0  0  0  0  0  0  0  0
   -0.7528   -0.0178    2.3389 C   0  0  0  0  0  0  0  0  0  0  0  0
   -1.8702    0.2838    1.5914 C   0  0  0  0  0  0  0  0  0  0  0  0
   -1.8195    1.2494    0.6131 C   0  0  0  0  0  0  0  0  0  0  0  0
   -2.9722    1.6089   -0.2079 C   0  0  0  0  0  0  0  0  0  0  0  0
   -2.8436    2.4989   -1.0874 O   0  0  0  0  0  0  0  0  0  0  0  0
   -4.2292    1.0051   -0.0636 N   0  0  0  0  0  0  0  0  0  0  0  0
   -5.3222    1.4080   -0.9070 C   0  0  1  0  0  0  0  0  0  0  0  0
   -5.6722    0.2204   -1.7807 C   0  0  0  0  0  0  0  0  0  0  0  0
   -6.0813   -0.9759   -0.9881 C   0  0  0  0  0  0  0  0  0  0  0  0
   -6.4033   -2.0828   -1.9189 C   0  0  0  0  0  0  0  0  0  0  0  0
   -6.3104   -1.9146   -3.1573 O   0  0  0  0  0  0  0  0  0  0  0  0
   -6.8109   -3.3170   -1.4318 O   0  0  0  0  0  0  0  0  0  0  0  0
   -6.4785    1.9051   -0.1552 C   0  0  0  0  0  0  0  0  0  0  0  0
   -6.4670    1.9536    1.0931 O   0  0  0  0  0  0  0  0  0  0  0  0
   -7.6044    2.3294   -0.8301 O   0  0  0  0  0  0  0  0  0  0  0  0
   -0.6080    1.8864    0.4276 C   0  0  0  0  0  0  0  0  0  0  0  0
    0.5087    1.5840    1.1761 C   0  0  0  0  0  0  0  0  0  0  0  0
    5.0223   -0.0846    1.5804 N   0  0  0  0  0  0  0  0  0  0  0  0
    8.4262   -0.9880   -3.5148 H   0  0  0  0  0  0  0  0  0  0  0  0
    8.3348   -2.6710   -2.9225 H   0  0  0  0  0  0  0  0  0  0  0  0
    5.4866   -1.7002   -2.5518 H   0  0  0  0  0  0  0  0  0  0  0  0
    3.3386   -1.6107   -1.3754 H   0  0  0  0  0  0  0  0  0  0  0  0
    2.9385    0.7289   -0.1055 H   0  0  0  0  0  0  0  0  0  0  0  0
    1.9504   -0.7267    0.2745 H   0  0  0  0  0  0  0  0  0  0  0  0
    3.4834   -1.3722    2.0565 H   0  0  0  0  0  0  0  0  0  0  0  0
    3.5658    0.4730    3.6101 H   0  0  0  0  0  0  0  0  0  0  0  0
    3.0683    1.6578    2.4079 H   0  0  0  0  0  0  0  0  0  0  0  0
    1.3656   -0.2234    3.9120 H   0  0  0  0  0  0  0  0  0  0  0  0
   -0.7828   -0.7873    3.1225 H   0  0  0  0  0  0  0  0  0  0  0  0
   -2.8096   -0.2477    1.7743 H   0  0  0  0  0  0  0  0  0  0  0  0
   -4.4083    0.2650    0.6402 H   0  0  0  0  0  0  0  0  0  0  0  0
   -5.0114    2.2211   -1.6268 H   0  0  0  0  0  0  0  0  0  0  0  0
   -6.4970    0.4723   -2.4805 H   0  0  0  0  0  0  0  0  0  0  0  0
   -4.7806    0.0132   -2.4030 H   0  0  0  0  0  0  0  0  0  0  0  0
   -6.9685   -0.6997   -0.3734 H   0  0  0  0  0  0  0  0  0  0  0  0
   -5.2510   -1.3242   -0.3203 H   0  0  0  0  0  0  0  0  0  0  0  0
   -7.2639   -4.0055   -2.0364 H   0  0  0  0  0  0  0  0  0  0  0  0
   -8.3430    2.8923   -0.4262 H   0  0  0  0  0  0  0  0  0  0  0  0
   -0.5823    2.6521   -0.3539 H   0  0  0  0  0  0  0  0  0  0  0  0
    1.4167    2.1344    0.9790 H   0  0  0  0  0  0  0  0  0  0  0  0
    5.4527    0.3917    2.3881 H   0  0  0  0  0  0  0  0  0  0  0  0
  1  2  1  0
  2  3  2  0
  3  4  1  0
  4  5  2  0
  4  6  1  0
  6  7  2  0
  7  8  1  0
  7  9  1  0
  9 10  1  0
 10 11  1  0
 11 12  1  0
 12 13  1  0
 13 14  1  0
 14 15  2  0
 15 16  1  0
 16 17  2  0
 17 18  1  0
 18 19  2  0
 18 20  1  0
 20 21  1  0
 21 22  1  0
 22 23  1  0
 23 24  1  0
 24 25  2  0
 24 26  1  0
 21 27  1  0
 27 28  2  0
 27 29  1  0
 17 30  1  0
 30 31  2  0
 11 32  1  0
  8  2  1  0
 31 14  1  0
 32  6  1  0
  1 33  1  0
  1 34  1  0
  8 35  1  0
  9 36  1  0
 10 37  1  0
 10 38  1  0
 11 39  1  1
 12 40  1  0
 12 41  1  0
 13 42  1  0
 15 43  1  0
 16 44  1  0
 20 45  1  0
 21 46  1  6
 22 47  1  0
 22 48  1  0
 23 49  1  0
 23 50  1  0
 26 51  1  0
 29 52  1  0
 30 53  1  0
 31 54  1  0
 32 55  1  0
M  END
$$$$

     RDKit          3D

 55 57  0  0  0  0  0  0  0  0999 V2000
   -8.0042   -1.4926    2.8774 N   0  0  0  0  0  0  0  0  0  0  0  0
   -7.1825   -0.6930    2.0623 C   0  0  0  0  0  0  0  0  0  0  0  0
   -7.0487    0.6228    2.3538 N   0  0  0  0  0  0  0  0  0  0  0  0
   -6.2889    1.4615    1.6358 C   0  0  0  0  0  0  0  0  0  0  0  0
   -6.1692    2.6738    1.9092 O   0  0  0  0  0  0  0  0  0  0  0  0
   -5.6119    0.9541    0.5469 C   0  0  0  0  0  0  0  0  0  0  0  0
   -5.7295   -0.3717    0.2300 C   0  0  0  0  0  0  0  0  0  0  0  0
   -6.5109   -1.1477    0.9995 N   0  0  0  0  0  0  0  0  0  0  0  0
   -5.0288   -0.9082   -0.9022 N   0  0  0  0  0  0  0  0  0  0  0  0
   -4.7204    0.0284   -1.9690 C   0  0  0  0  0  0  0  0  0  0  0  0
   -4.0731    1.2664   -1.3980 C   0  0  2  0  0  0  0  0  0  0  0  0
   -2.6444    0.9800   -1.0612 C   0  0  0  0  0  0  0  0  0  0  0  0
   -1.8759    0.5799   -2.2152 N   0  0  0  0  0  0  0  0  0  0  0  0
   -0.4937    0.2520   -2.0424 C   0  0  0  0  0  0  0  0  0  0  0  0
    0.2122   -0.1295   -3.1601 C   0  0  0  0  0  0  0  0  0  0  0  0
    1.5520   -0.4457   -2.9828 C   0  0  0  0  0  0  0  0  0  0  0  0
    2.1619   -0.3860   -1.7541 C   0  0  0  0  0  0  0  0  0  0  0  0
    3.5627   -0.7317   -1.6465 C   0  0  0  0  0  0  0  0  0  0  0  0
    4.1814   -1.0784   -2.6846 O   0  0  0  0  0  0  0  0  0  0  0  0
    4.3186   -0.7140   -0.4458 N   0  0  0  0  0  0  0  0  0  0  0  0
    5.7319   -1.0765   -0.4127 C   0  0  1  0  0  0  0  0  0  0  0  0
    6.5564    0.0933    0.0252 C   0  0  0  0  0  0  0  0  0  0  0  0
    6.1936    0.5948    1.4008 C   0  0  0  0  0  0  0  0  0  0  0  0
    7.0825    1.7499    1.7122 C   0  0  0  0  0  0  0  0  0  0  0  0
    7.9545    2.1643    0.9054 O   0  0  0  0  0  0  0  0  0  0  0  0
    6.9853    2.4295    2.9255 O   0  0  0  0  0  0  0  0  0  0  0  0
    5.9545   -2.2819    0.4190 C   0  0  0  0  0  0  0  0  0  0  0  0
    5.0458   -2.9079    1.0176 O   0  0  0  0  0  0  0  0  0  0  0  0
    7.2491   -2.7623    0.5545 O   0  0  0  0  0  0  0  0  0  0  0  0
    1.4631   -0.0079   -0.6448 C   0  0  0  0  0  0  0  0  0  0  0  0
    0.1193    0.3113   -0.8113 C   0  0  0  0  0  0  0  0  0  0  0  0
   -4.7925    1.7703   -0.2600 N   0  0  0  0  0  0  0  0  0  0  0  0
   -7.7837   -2.4968    2.9953 H   0  0  0  0  0  0  0  0  0  0  0  0
   -8.8325   -1.1074    3.3699 H   0  0  0  0  0  0  0  0  0  0  0  0
   -6.5994   -2.1596    0.7563 H   0  0  0  0  0  0  0  0  0  0  0  0
   -4.7797   -1.9167   -0.9085 H   0  0  0  0  0  0  0  0  0  0  0  0
   -5.6444    0.3067   -2.5335 H   0  0  0  0  0  0  0  0  0  0  0  0
   -4.0171   -0.4492   -2.6620 H   0  0  0  0  0  0  0  0  0  0  0  0
   -4.0981    2.0790   -2.1797 H   0  0  0  0  0  0  0  0  0  0  0  0
   -2.6087    0.1984   -0.2569 H   0  0  0  0  0  0  0  0  0  0  0  0
   -2.1861    1.8870   -0.6083 H   0  0  0  0  0  0  0  0  0  0  0  0
   -2.3259    0.5372   -3.1476 H   0  0  0  0  0  0  0  0  0  0  0  0
   -0.2547   -0.1832   -4.1449 H   0  0  0  0  0  0  0  0  0  0  0  0
    2.0878   -0.7433   -3.8766 H   0  0  0  0  0  0  0  0  0  0  0  0
    3.8325   -0.4313    0.4245 H   0  0  0  0  0  0  0  0  0  0  0  0
    6.0608   -1.3416   -1.4432 H   0  0  0  0  0  0  0  0  0  0  0  0
    7.6324   -0.1498   -0.0564 H   0  0  0  0  0  0  0  0  0  0  0  0
    6.3701    0.9195   -0.6939 H   0  0  0  0  0  0  0  0  0  0  0  0
    5.1606    1.0005    1.3962 H   0  0  0  0  0  0  0  0  0  0  0  0
    6.2267   -0.1907    2.1682 H   0  0  0  0  0  0  0  0  0  0  0  0
    7.3854    3.3439    3.0834 H   0  0  0  0  0  0  0  0  0  0  0  0
    7.5248   -3.3703    1.3318 H   0  0  0  0  0  0  0  0  0  0  0  0
    1.8698    0.0634    0.3525 H   0  0  0  0  0  0  0  0  0  0  0  0
   -0.4565    0.6171    0.0721 H   0  0  0  0  0  0  0  0  0  0  0  0
   -4.7141    2.7899   -0.0063 H   0  0  0  0  0  0  0  0  0  0  0  0
  1  2  1  0
  2  3  2  0
  3  4  1  0
  4  5  2  0
  4  6  1  0
  6  7  2  0
  7  8  1  0
  7  9  1  0
  9 10  1  0
 10 11  1  0
 11 12  1  0
 12 13  1  0
 13 14  1  0
 14 15  2  0
 15 16  1  0
 16 17  2  0
 17 18  1  0
 18 19  2  0
 18 20  1  0
 20 21  1  0
 21 22  1  0
 22 23  1  0
 23 24  1  0
 24 25  2  0
 24 26  1  0
 21 27  1  0
 27 28  2  0
 27 29  1  0
 17 30  1  0
 30 31  2  0
 11 32  1  0
  8  2  1  0
 31 14  1  0
 32  6  1  0
  1 33  1  0
  1 34  1  0
  8 35  1  0
  9 36  1  0
 10 37  1  0
 10 38  1  0
 11 39  1  6
 12 40  1  0
 12 41  1  0
 13 42  1  0
 15 43  1  0
 16 44  1  0
 20 45  1  0
 21 46  1  6
 22 47  1  0
 22 48  1  0
 23 49  1  0
 23 50  1  0
 26 51  1  0
 29 52  1  0
 30 53  1  0
 31 54  1  0
 32 55  1  0
M  END
$$$$

     RDKit          3D

 55 57  0  0  0  0  0  0  0  0999 V2000
   10.1077    0.4468    0.0953 N   0  0  0  0  0  0  0  0  0  0  0  0
    8.6842    0.3503    0.0996 C   0  0  0  0  0  0  0  0  0  0  0  0
    7.9566    1.4442    0.4281 N   0  0  0  0  0  0  0  0  0  0  0  0
    6.6173    1.4089    0.4500 C   0  0  0  0  0  0  0  0  0  0  0  0
    5.9124    2.4106    0.7518 O   0  0  0  0  0  0  0  0  0  0  0  0
    5.9768    0.2294    0.1295 C   0  0  0  0  0  0  0  0  0  0  0  0
    6.7261   -0.8651   -0.2001 C   0  0  0  0  0  0  0  0  0  0  0  0
    8.0850   -0.7905   -0.2107 N   0  0  0  0  0  0  0  0  0  0  0  0
    6.0640   -2.0803   -0.5311 N   0  0  0  0  0  0  0  0  0  0  0  0
    4.6683   -2.0048   -0.9689 C   0  0  0  0  0  0  0  0  0  0  0  0
    3.9305   -1.1571    0.0478 C   0  0  2  0  0  0  0  0  0  0  0  0
    2.4767   -1.0040   -0.2879 C   0  0  0  0  0  0  0  0  0  0  0  0
    1.8891   -0.1737    0.7645 N   0  0  0  0  0  0  0  0  0  0  0  0
    0.5045    0.0902    0.7038 C   0  0  0  0  0  0  0  0  0  0  0  0
   -0.0479    0.8553    1.7195 C   0  0  0  0  0  0  0  0  0  0  0  0
   -1.4117    1.1199    1.6796 C   0  0  0  0  0  0  0  0  0  0  0  0
   -2.1781    0.6428    0.6755 C   0  0  0  0  0  0  0  0  0  0  0  0
   -3.6242    0.9088    0.6420 C   0  0  0  0  0  0  0  0  0  0  0  0
   -4.1604    1.1707    1.7538 O   0  0  0  0  0  0  0  0  0  0  0  0
   -4.3746    0.8798   -0.5328 N   0  0  0  0  0  0  0  0  0  0  0  0
   -5.7802    1.1441   -0.6229 C   0  0  1  0  0  0  0  0  0  0  0  0
   -6.6098   -0.0840   -0.6882 C   0  0  0  0  0  0  0  0  0  0  0  0
   -8.0799    0.0812   -0.7794 C   0  0  0  0  0  0  0  0  0  0  0  0
   -8.6959   -1.2968   -0.8823 C   0  0  0  0  0  0  0  0  0  0  0  0
   -8.6561   -1.8890   -1.9843 O   0  0  0  0  0  0  0  0  0  0  0  0
   -9.2982   -1.9222    0.1923 O   0  0  0  0  0  0  0  0  0  0  0  0
   -6.2775    2.2527    0.1885 C   0  0  0  0  0  0  0  0  0  0  0  0
   -5.5130    2.9667    0.8577 O   0  0  0  0  0  0  0  0  0  0  0  0
   -7.6225    2.5530    0.2427 O   0  0  0  0  0  0  0  0  0  0  0  0
   -1.6394   -0.1148   -0.3343 C   0  0  0  0  0  0  0  0  0  0  0  0
   -0.2693   -0.3971   -0.3198 C   0  0  0  0  0  0  0  0  0  0  0  0
    4.5395    0.1481    0.1466 N   0  0  0  0  0  0  0  0  0  0  0  0
   10.6357    0.0739    0.9163 H   0  0  0  0  0  0  0  0  0  0  0  0
   10.6095    0.8718   -0.6934 H   0  0  0  0  0  0  0  0  0  0  0  0
    8.6003   -1.6624   -0.4702 H   0  0  0  0  0  0  0  0  0  0  0  0
    6.5730   -2.9761   -0.4588 H   0  0  0  0  0  0  0  0  0  0  0  0
    4.5786   -1.5323   -1.9647 H   0  0  0  0  0  0  0  0  0  0  0  0
    4.2005   -3.0095   -0.9979 H   0  0  0  0  0  0  0  0  0  0  0  0
    3.9689   -1.7049    1.0322 H   0  0  0  0  0  0  0  0  0  0  0  0
    2.3302   -0.4757   -1.2457 H   0  0  0  0  0  0  0  0  0  0  0  0
    1.9525   -1.9899   -0.3408 H   0  0  0  0  0  0  0  0  0  0  0  0
    2.4796    0.2162    1.5449 H   0  0  0  0  0  0  0  0  0  0  0  0
    0.5411    1.2469    2.5321 H   0  0  0  0  0  0  0  0  0  0  0  0
   -1.8323    1.7231    2.4869 H   0  0  0  0  0  0  0  0  0  0  0  0
   -3.8159    0.6338   -1.4225 H   0  0  0  0  0  0  0  0  0  0  0  0
   -5.8832    1.6046   -1.7054 H   0  0  0  0  0  0  0  0  0  0  0  0
   -6.2659   -0.7811   -1.5000 H   0  0  0  0  0  0  0  0  0  0  0  0
   -6.4121   -0.6672    0.2621 H   0  0  0  0  0  0  0  0  0  0  0  0
   -8.5448    0.5116    0.1344 H   0  0  0  0  0  0  0  0  0  0  0  0
   -8.3500    0.6044   -1.7122 H   0  0  0  0  0  0  0  0  0  0  0  0
   -9.3238   -2.9434    0.2760 H   0  0  0  0  0  0  0  0  0  0  0  0
   -7.8961    3.4484    0.6198 H   0  0  0  0  0  0  0  0  0  0  0  0
   -2.1902   -0.5266   -1.1601 H   0  0  0  0  0  0  0  0  0  0  0  0
    0.1575   -1.0028   -1.1276 H   0  0  0  0  0  0  0  0  0  0  0  0
    3.9868    1.0132    0.2286 H   0  0  0  0  0  0  0  0  0  0  0  0
  1  2  1  0
  2  3  2  0
  3  4  1  0
  4  5  2  0
  4  6  1  0
  6  7  2  0
  7  8  1  0
  7  9  1  0
  9 10  1  0
 10 11  1  0
 11 12  1  0
 12 13  1  0
 13 14  1  0
 14 15  2  0
 15 16  1  0
 16 17  2  0
 17 18  1  0
 18 19  2  0
 18 20  1  0
 20 21  1  0
 21 22  1  0
 22 23  1  0
 23 24  1  0
 24 25  2  0
 24 26  1  0
 21 27  1  0
 27 28  2  0
 27 29  1  0
 17 30  1  0
 30 31  2  0
 11 32  1  0
  8  2  1  0
 31 14  1  0
 32  6  1  0
  1 33  1  0
  1 34  1  0
  8 35  1  0
  9 36  1  0
 10 37  1  0
 10 38  1  0
 11 39  1  1
 12 40  1  0
 12 41  1  0
 13 42  1  0
 15 43  1  0
 16 44  1  0
 20 45  1  0
 21 46  1  6
 22 47  1  0
 22 48  1  0
 23 49  1  0
 23 50  1  0
 26 51  1  0
 29 52  1  0
 30 53  1  0
 31 54  1  0
 32 55  1  0
M  END
$$$$

     RDKit          3D

 55 57  0  0  0  0  0  0  0  0999 V2000
    9.8595   -0.0760    1.4540 N   0  0  0  0  0  0  0  0  0  0  0  0
    8.4778   -0.2312    1.1907 C   0  0  0  0  0  0  0  0  0  0  0  0
    7.6307   -0.6406    2.1465 N   0  0  0  0  0  0  0  0  0  0  0  0
    6.3152   -0.7964    1.9246 C   0  0  0  0  0  0  0  0  0  0  0  0
    5.5591   -1.1847    2.8595 O   0  0  0  0  0  0  0  0  0  0  0  0
    5.7891   -0.5341    0.6815 C   0  0  0  0  0  0  0  0  0  0  0  0
    6.6765   -0.1097   -0.3040 C   0  0  0  0  0  0  0  0  0  0  0  0
    7.9910    0.0317   -0.0308 N   0  0  0  0  0  0  0  0  0  0  0  0
    6.1721    0.1674   -1.5880 N   0  0  0  0  0  0  0  0  0  0  0  0
    4.7640    0.3556   -1.7875 C   0  0  0  0  0  0  0  0  0  0  0  0
    3.8857   -0.5463   -0.9714 C   0  0  2  0  0  0  0  0  0  0  0  0
    2.4885    0.0677   -0.9625 C   0  0  0  0  0  0  0  0  0  0  0  0
    1.5627   -0.7123   -0.2060 N   0  0  0  0  0  0  0  0  0  0  0  0
    0.2137   -0.2929   -0.0945 C   0  0  0  0  0  0  0  0  0  0  0  0
   -0.2041    0.8480   -0.7420 C   0  0  0  0  0  0  0  0  0  0  0  0
   -1.5245    1.2484   -0.6242 C   0  0  0  0  0  0  0  0  0  0  0  0
   -2.4626    0.5639    0.1141 C   0  0  0  0  0  0  0  0  0  0  0  0
   -3.8182    1.0791    0.1595 C   0  0  0  0  0  0  0  0  0  0  0  0
   -4.1272    2.0371   -0.5722 O   0  0  0  0  0  0  0  0  0  0  0  0
   -4.8451    0.5528    1.0033 N   0  0  0  0  0  0  0  0  0  0  0  0
   -6.1908    1.0951    1.0186 C   0  0  1  0  0  0  0  0  0  0  0  0
   -7.0939   -0.0352    0.5067 C   0  0  0  0  0  0  0  0  0  0  0  0
   -6.6219   -0.3818   -0.8940 C   0  0  0  0  0  0  0  0  0  0  0  0
   -7.4130   -1.4610   -1.5006 C   0  0  0  0  0  0  0  0  0  0  0  0
   -8.5524   -1.2205   -1.9496 O   0  0  0  0  0  0  0  0  0  0  0  0
   -6.9052   -2.7367   -1.5768 O   0  0  0  0  0  0  0  0  0  0  0  0
   -6.6054    1.5428    2.3564 C   0  0  0  0  0  0  0  0  0  0  0  0
   -5.8395    1.4406    3.3366 O   0  0  0  0  0  0  0  0  0  0  0  0
   -7.8555    2.0877    2.5559 O   0  0  0  0  0  0  0  0  0  0  0  0
   -2.0457   -0.5773    0.7622 C   0  0  0  0  0  0  0  0  0  0  0  0
   -0.7282   -0.9844    0.6496 C   0  0  0  0  0  0  0  0  0  0  0  0
    4.4194   -0.6728    0.3677 N   0  0  0  0  0  0  0  0  0  0  0  0
   10.1860    0.2435    2.4035 H   0  0  0  0  0  0  0  0  0  0  0  0
   10.6130   -0.2578    0.7616 H   0  0  0  0  0  0  0  0  0  0  0  0
    8.6054    0.3534   -0.8119 H   0  0  0  0  0  0  0  0  0  0  0  0
    6.8157    0.2364   -2.3908 H   0  0  0  0  0  0  0  0  0  0  0  0
    4.4671    0.2206   -2.8517 H   0  0  0  0  0  0  0  0  0  0  0  0
    4.4840    1.4089   -1.5061 H   0  0  0  0  0  0  0  0  0  0  0  0
    3.7872   -1.5574   -1.4648 H   0  0  0  0  0  0  0  0  0  0  0  0
    2.5366    1.1252   -0.6715 H   0  0  0  0  0  0  0  0  0  0  0  0
    2.1599    0.0409   -2.0429 H   0  0  0  0  0  0  0  0  0  0  0  0
    1.8242   -1.6024    0.2870 H   0  0  0  0  0  0  0  0  0  0  0  0
    0.5259    1.4011   -1.3304 H   0  0  0  0  0  0  0  0  0  0  0  0
   -1.8234    2.1455   -1.1417 H   0  0  0  0  0  0  0  0  0  0  0  0
   -4.5760   -0.2455    1.6114 H   0  0  0  0  0  0  0  0  0  0  0  0
   -6.3099    1.9232    0.2915 H   0  0  0  0  0  0  0  0  0  0  0  0
   -8.1377    0.3308    0.4752 H   0  0  0  0  0  0  0  0  0  0  0  0
   -6.9780   -0.8744    1.2074 H   0  0  0  0  0  0  0  0  0  0  0  0
   -5.5656   -0.7068   -0.8307 H   0  0  0  0  0  0  0  0  0  0  0  0
   -6.6209    0.5440   -1.5126 H   0  0  0  0  0  0  0  0  0  0  0  0
   -7.5064   -3.5714   -1.5636 H   0  0  0  0  0  0  0  0  0  0  0  0
   -8.0378    2.7918    3.2883 H   0  0  0  0  0  0  0  0  0  0  0  0
   -2.7749   -1.1194    1.3425 H   0  0  0  0  0  0  0  0  0  0  0  0
   -0.4130   -1.8739    1.1576 H   0  0  0  0  0  0  0  0  0  0  0  0
    3.7665   -0.8805    1.1719 H   0  0  0  0  0  0  0  0  0  0  0  0
  1  2  1  0
  2  3  2  0
  3  4  1  0
  4  5  2  0
  4  6  1  0
  6  7  2  0
  7  8  1  0
  7  9  1  0
  9 10  1  0
 10 11  1  0
 11 12  1  0
 12 13  1  0
 13 14  1  0
 14 15  2  0
 15 16  1  0
 16 17  2  0
 17 18  1  0
 18 19  2  0
 18 20  1  0
 20 21  1  0
 21 22  1  0
 22 23  1  0
 23 24  1  0
 24 25  2  0
 24 26  1  0
 21 27  1  0
 27 28  2  0
 27 29  1  0
 17 30  1  0
 30 31  2  0
 11 32  1  0
  8  2  1  0
 31 14  1  0
 32  6  1  0
  1 33  1  0
  1 34  1  0
  8 35  1  0
  9 36  1  0
 10 37  1  0
 10 38  1  0
 11 39  1  6
 12 40  1  0
 12 41  1  0
 13 42  1  0
 15 43  1  0
 16 44  1  0
 20 45  1  0
 21 46  1  6
 22 47  1  0
 22 48  1  0
 23 49  1  0
 23 50  1  0
 26 51  1  0
 29 52  1  0
 30 53  1  0
 31 54  1  0
 32 55  1  0
M  END
$$$$

     RDKit          3D

 55 57  0  0  0  0  0  0  0  0999 V2000
   -9.3823    1.7078    0.0041 N   0  0  0  0  0  0  0  0  0  0  0  0
   -8.0253    1.3241   -0.1300 C   0  0  0  0  0  0  0  0  0  0  0  0
   -7.0416    2.2377   -0.3168 N   0  0  0  0  0  0  0  0  0  0  0  0
   -5.7428    1.8937   -0.4476 C   0  0  0  0  0  0  0  0  0  0  0  0
   -4.8785    2.7971   -0.6194 O   0  0  0  0  0  0  0  0  0  0  0  0
   -5.3676    0.5692   -0.3936 C   0  0  0  0  0  0  0  0  0  0  0  0
   -6.3691   -0.3650   -0.2032 C   0  0  0  0  0  0  0  0  0  0  0  0
   -7.6467    0.0185   -0.0778 N   0  0  0  0  0  0  0  0  0  0  0  0
   -5.9664   -1.7342   -0.1492 N   0  0  0  0  0  0  0  0  0  0  0  0
   -4.6904   -2.1754   -0.6556 C   0  0  0  0  0  0  0  0  0  0  0  0
   -3.5797   -1.1987   -0.3164 C   0  0  2  0  0  0  0  0  0  0  0  0
   -3.1815   -1.3015    1.1315 C   0  0  0  0  0  0  0  0  0  0  0  0
   -2.1370   -0.3961    1.4495 N   0  0  0  0  0  0  0  0  0  0  0  0
   -0.7945   -0.5004    0.9989 C   0  0  0  0  0  0  0  0  0  0  0  0
    0.0894    0.5424    1.2359 C   0  0  0  0  0  0  0  0  0  0  0  0
    1.4086    0.4789    0.8397 C   0  0  0  0  0  0  0  0  0  0  0  0
    1.9151   -0.6223    0.1887 C   0  0  0  0  0  0  0  0  0  0  0  0
    3.3186   -0.7243   -0.2212 C   0  0  0  0  0  0  0  0  0  0  0  0
    3.6583   -1.5373   -1.1129 O   0  0  0  0  0  0  0  0  0  0  0  0
    4.3134    0.0805    0.3737 N   0  0  0  0  0  0  0  0  0  0  0  0
    5.7456    0.0147   -0.0036 C   0  0  1  0  0  0  0  0  0  0  0  0
    6.0608    1.3243   -0.6181 C   0  0  0  0  0  0  0  0  0  0  0  0
    7.4708    1.5831   -1.0332 C   0  0  0  0  0  0  0  0  0  0  0  0
    8.3227    1.7066    0.1620 C   0  0  0  0  0  0  0  0  0  0  0  0
    7.8119    1.9048    1.2800 O   0  0  0  0  0  0  0  0  0  0  0  0
    9.6913    1.6031    0.0439 O   0  0  0  0  0  0  0  0  0  0  0  0
    6.5901   -0.5458    1.0179 C   0  0  0  0  0  0  0  0  0  0  0  0
    6.1171   -0.7145    2.1861 O   0  0  0  0  0  0  0  0  0  0  0  0
    7.9025   -0.9267    0.8031 O   0  0  0  0  0  0  0  0  0  0  0  0
    1.0366   -1.6536   -0.0449 C   0  0  0  0  0  0  0  0  0  0  0  0
   -0.3053   -1.5995    0.3538 C   0  0  0  0  0  0  0  0  0  0  0  0
   -4.0197    0.1732   -0.5245 N   0  0  0  0  0  0  0  0  0  0  0  0
  -10.1316    0.9993   -0.0013 H   0  0  0  0  0  0  0  0  0  0  0  0
   -9.6148    2.7055    0.1075 H   0  0  0  0  0  0  0  0  0  0  0  0
   -8.3857   -0.7148    0.0667 H   0  0  0  0  0  0  0  0  0  0  0  0
   -6.6091   -2.4348    0.2649 H   0  0  0  0  0  0  0  0  0  0  0  0
   -4.7833   -2.3444   -1.7285 H   0  0  0  0  0  0  0  0  0  0  0  0
   -4.4270   -3.1402   -0.1764 H   0  0  0  0  0  0  0  0  0  0  0  0
   -2.7099   -1.3705   -0.9621 H   0  0  0  0  0  0  0  0  0  0  0  0
   -2.9717   -2.3526    1.4336 H   0  0  0  0  0  0  0  0  0  0  0  0
   -4.0897   -1.0296    1.7449 H   0  0  0  0  0  0  0  0  0  0  0  0
   -2.3735    0.4321    2.0774 H   0  0  0  0  0  0  0  0  0  0  0  0
   -0.2871    1.4348    1.7530 H   0  0  0  0  0  0  0  0  0  0  0  0
    2.0872    1.3165    1.0363 H   0  0  0  0  0  0  0  0  0  0  0  0
    4.0156    0.7550    1.1202 H   0  0  0  0  0  0  0  0  0  0  0  0
    5.7224   -0.7312   -0.8892 H   0  0  0  0  0  0  0  0  0  0  0  0
    5.4172    1.4256   -1.5406 H   0  0  0  0  0  0  0  0  0  0  0  0
    5.6849    2.1749    0.0304 H   0  0  0  0  0  0  0  0  0  0  0  0
    7.8154    0.7506   -1.6946 H   0  0  0  0  0  0  0  0  0  0  0  0
    7.5250    2.5042   -1.6780 H   0  0  0  0  0  0  0  0  0  0  0  0
   10.3006    1.3704    0.8444 H   0  0  0  0  0  0  0  0  0  0  0  0
    8.4035   -1.5525    1.4180 H   0  0  0  0  0  0  0  0  0  0  0  0
    1.3364   -2.5781   -0.5567 H   0  0  0  0  0  0  0  0  0  0  0  0
   -0.9542   -2.4522    0.1494 H   0  0  0  0  0  0  0  0  0  0  0  0
   -3.2951    0.8674   -0.7772 H   0  0  0  0  0  0  0  0  0  0  0  0
  1  2  1  0
  2  3  2  0
  3  4  1  0
  4  5  2  0
  4  6  1  0
  6  7  2  0
  7  8  1  0
  7  9  1  0
  9 10  1  0
 10 11  1  0
 11 12  1  0
 12 13  1  0
 13 14  1  0
 14 15  2  0
 15 16  1  0
 16 17  2  0
 17 18  1  0
 18 19  2  0
 18 20  1  0
 20 21  1  0
 21 22  1  0
 22 23  1  0
 23 24  1  0
 24 25  2  0
 24 26  1  0
 21 27  1  0
 27 28  2  0
 27 29  1  0
 17 30  1  0
 30 31  2  0
 11 32  1  0
  8  2  1  0
 31 14  1  0
 32  6  1  0
  1 33  1  0
  1 34  1  0
  8 35  1  0
  9 36  1  0
 10 37  1  0
 10 38  1  0
 11 39  1  6
 12 40  1  0
 12 41  1  0
 13 42  1  0
 15 43  1  0
 16 44  1  0
 20 45  1  0
 21 46  1  6
 22 47  1  0
 22 48  1  0
 23 49  1  0
 23 50  1  0
 26 51  1  0
 29 52  1  0
 30 53  1  0
 31 54  1  0
 32 55  1  0
M  END
$$$$

     RDKit          3D

 55 57  0  0  0  0  0  0  0  0999 V2000
    9.7954   -1.1871    1.2127 N   0  0  0  0  0  0  0  0  0  0  0  0
    8.4817   -0.8691    0.7799 C   0  0  0  0  0  0  0  0  0  0  0  0
    8.0678   -1.1108   -0.4839 N   0  0  0  0  0  0  0  0  0  0  0  0
    6.8129   -0.7849   -0.8237 C   0  0  0  0  0  0  0  0  0  0  0  0
    6.3905   -0.9988   -2.0060 O   0  0  0  0  0  0  0  0  0  0  0  0
    5.9034   -0.2125    0.0392 C   0  0  0  0  0  0  0  0  0  0  0  0
    6.3519    0.0231    1.3220 C   0  0  0  0  0  0  0  0  0  0  0  0
    7.6070   -0.3072    1.6476 N   0  0  0  0  0  0  0  0  0  0  0  0
    5.4380    0.6166    2.2514 N   0  0  0  0  0  0  0  0  0  0  0  0
    4.0130    0.5796    1.9643 C   0  0  0  0  0  0  0  0  0  0  0  0
    3.8275    1.0027    0.5272 C   0  0  2  0  0  0  0  0  0  0  0  0
    2.3693    1.0746    0.1431 C   0  0  0  0  0  0  0  0  0  0  0  0
    1.7005   -0.1886    0.2884 N   0  0  0  0  0  0  0  0  0  0  0  0
    0.3269   -0.3712   -0.0109 C   0  0  0  0  0  0  0  0  0  0  0  0
   -0.4898    0.6412   -0.4662 C   0  0  0  0  0  0  0  0  0  0  0  0
   -1.8242    0.4652   -0.7575 C   0  0  0  0  0  0  0  0  0  0  0  0
   -2.4090   -0.7643   -0.6002 C   0  0  0  0  0  0  0  0  0  0  0  0
   -3.8316   -0.9828   -0.9034 C   0  0  0  0  0  0  0  0  0  0  0  0
   -4.2891   -2.1391   -0.7282 O   0  0  0  0  0  0  0  0  0  0  0  0
   -4.7030    0.0192   -1.3744 N   0  0  0  0  0  0  0  0  0  0  0  0
   -6.1163   -0.2281   -1.6680 C   0  0  1  0  0  0  0  0  0  0  0  0
   -6.9859    0.6990   -0.8700 C   0  0  0  0  0  0  0  0  0  0  0  0
   -6.8006    0.5380    0.6005 C   0  0  0  0  0  0  0  0  0  0  0  0
   -7.1249   -0.7995    1.1298 C   0  0  0  0  0  0  0  0  0  0  0  0
   -7.5534   -1.7506    0.4415 O   0  0  0  0  0  0  0  0  0  0  0  0
   -6.9295   -0.9875    2.5004 O   0  0  0  0  0  0  0  0  0  0  0  0
   -6.3393   -0.0177   -3.1165 C   0  0  0  0  0  0  0  0  0  0  0  0
   -5.4125    0.3128   -3.8715 O   0  0  0  0  0  0  0  0  0  0  0  0
   -7.6075   -0.1955   -3.6273 O   0  0  0  0  0  0  0  0  0  0  0  0
   -1.6170   -1.7971   -0.1460 C   0  0  0  0  0  0  0  0  0  0  0  0
   -0.2900   -1.6037    0.1391 C   0  0  0  0  0  0  0  0  0  0  0  0
    4.5808    0.1268   -0.3326 N   0  0  0  0  0  0  0  0  0  0  0  0
    9.9200   -1.6759    2.1114 H   0  0  0  0  0  0  0  0  0  0  0  0
   10.6181   -0.9374    0.6445 H   0  0  0  0  0  0  0  0  0  0  0  0
    7.9437   -0.1239    2.6318 H   0  0  0  0  0  0  0  0  0  0  0  0
    5.8481    1.0520    3.1006 H   0  0  0  0  0  0  0  0  0  0  0  0
    3.7001   -0.4836    2.0996 H   0  0  0  0  0  0  0  0  0  0  0  0
    3.4731    1.2641    2.6491 H   0  0  0  0  0  0  0  0  0  0  0  0
    4.2504    2.0288    0.4422 H   0  0  0  0  0  0  0  0  0  0  0  0
    1.9121    1.8639    0.7982 H   0  0  0  0  0  0  0  0  0  0  0  0
    2.3087    1.4774   -0.8889 H   0  0  0  0  0  0  0  0  0  0  0  0
    2.2376   -1.0147    0.6279 H   0  0  0  0  0  0  0  0  0  0  0  0
   -0.0733    1.6260   -0.6052 H   0  0  0  0  0  0  0  0  0  0  0  0
   -2.4215    1.3126   -1.1169 H   0  0  0  0  0  0  0  0  0  0  0  0
   -4.3531    0.9799   -1.5276 H   0  0  0  0  0  0  0  0  0  0  0  0
   -6.3555   -1.2865   -1.4609 H   0  0  0  0  0  0  0  0  0  0  0  0
   -8.0522    0.4412   -1.0890 H   0  0  0  0  0  0  0  0  0  0  0  0
   -6.7689    1.7251   -1.2278 H   0  0  0  0  0  0  0  0  0  0  0  0
   -7.4195    1.2847    1.1723 H   0  0  0  0  0  0  0  0  0  0  0  0
   -5.7455    0.7487    0.9210 H   0  0  0  0  0  0  0  0  0  0  0  0
   -7.1631   -1.8847    2.8862 H   0  0  0  0  0  0  0  0  0  0  0  0
   -7.6927   -0.3585   -4.6256 H   0  0  0  0  0  0  0  0  0  0  0  0
   -2.0727   -2.7635   -0.0214 H   0  0  0  0  0  0  0  0  0  0  0  0
    0.3567   -2.4165    0.5024 H   0  0  0  0  0  0  0  0  0  0  0  0
    4.2066   -0.2786   -1.2246 H   0  0  0  0  0  0  0  0  0  0  0  0
  1  2  1  0
  2  3  2  0
  3  4  1  0
  4  5  2  0
  4  6  1  0
  6  7  2  0
  7  8  1  0
  7  9  1  0
  9 10  1  0
 10 11  1  0
 11 12  1  0
 12 13  1  0
 13 14  1  0
 14 15  2  0
 15 16  1  0
 16 17  2  0
 17 18  1  0
 18 19  2  0
 18 20  1  0
 20 21  1  0
 21 22  1  0
 22 23  1  0
 23 24  1  0
 24 25  2  0
 24 26  1  0
 21 27  1  0
 27 28  2  0
 27 29  1  0
 17 30  1  0
 30 31  2  0
 11 32  1  0
  8  2  1  0
 31 14  1  0
 32  6  1  0
  1 33  1  0
  1 34  1  0
  8 35  1  0
  9 36  1  0
 10 37  1  0
 10 38  1  0
 11 39  1  1
 12 40  1  0
 12 41  1  0
 13 42  1  0
 15 43  1  0
 16 44  1  0
 20 45  1  0
 21 46  1  1
 22 47  1  0
 22 48  1  0
 23 49  1  0
 23 50  1  0
 26 51  1  0
 29 52  1  0
 30 53  1  0
 31 54  1  0
 32 55  1  0
M  END
$$$$

     RDKit          3D

 55 57  0  0  0  0  0  0  0  0999 V2000
    9.2719    0.6128    0.3168 N   0  0  0  0  0  0  0  0  0  0  0  0
    7.8602    0.5555    0.2025 C   0  0  0  0  0  0  0  0  0  0  0  0
    7.2705    1.1596   -0.8470 N   0  0  0  0  0  0  0  0  0  0  0  0
    5.9518    1.1420   -1.0117 C   0  0  0  0  0  0  0  0  0  0  0  0
    5.3489    1.6866   -1.9685 O   0  0  0  0  0  0  0  0  0  0  0  0
    5.1746    0.4862   -0.0795 C   0  0  0  0  0  0  0  0  0  0  0  0
    5.7951   -0.1294    0.9925 C   0  0  0  0  0  0  0  0  0  0  0  0
    7.1400   -0.0953    1.1349 N   0  0  0  0  0  0  0  0  0  0  0  0
    4.9567   -0.7954    1.9284 N   0  0  0  0  0  0  0  0  0  0  0  0
    3.7389   -1.4256    1.4902 C   0  0  0  0  0  0  0  0  0  0  0  0
    2.9915   -0.6668    0.4354 C   0  0  2  0  0  0  0  0  0  0  0  0
    2.6354   -1.5820   -0.7354 C   0  0  0  0  0  0  0  0  0  0  0  0
    1.9161   -0.8215   -1.7288 N   0  0  0  0  0  0  0  0  0  0  0  0
    0.6067   -0.3123   -1.5221 C   0  0  0  0  0  0  0  0  0  0  0  0
   -0.1542   -0.7248   -0.4624 C   0  0  0  0  0  0  0  0  0  0  0  0
   -1.4359   -0.1820   -0.2970 C   0  0  0  0  0  0  0  0  0  0  0  0
   -1.9298    0.7424   -1.1700 C   0  0  0  0  0  0  0  0  0  0  0  0
   -3.2462    1.2969   -1.0074 C   0  0  0  0  0  0  0  0  0  0  0  0
   -3.6203    2.2923   -1.7150 O   0  0  0  0  0  0  0  0  0  0  0  0
   -4.1387    0.7374   -0.0565 N   0  0  0  0  0  0  0  0  0  0  0  0
   -5.4651    1.2970    0.1063 C   0  0  1  0  0  0  0  0  0  0  0  0
   -6.4912    0.2522   -0.2239 C   0  0  0  0  0  0  0  0  0  0  0  0
   -6.3966   -0.9594    0.6569 C   0  0  0  0  0  0  0  0  0  0  0  0
   -7.4358   -1.9723    0.2958 C   0  0  0  0  0  0  0  0  0  0  0  0
   -8.2588   -1.7856   -0.6307 O   0  0  0  0  0  0  0  0  0  0  0  0
   -7.4938   -3.1603    1.0089 O   0  0  0  0  0  0  0  0  0  0  0  0
   -5.6256    1.8248    1.4842 C   0  0  0  0  0  0  0  0  0  0  0  0
   -4.7107    1.7678    2.3443 O   0  0  0  0  0  0  0  0  0  0  0  0
   -6.8420    2.4109    1.8471 O   0  0  0  0  0  0  0  0  0  0  0  0
   -1.1495    1.1412   -2.2254 C   0  0  0  0  0  0  0  0  0  0  0  0
    0.1170    0.6258   -2.4158 C   0  0  0  0  0  0  0  0  0  0  0  0
    3.7705    0.4134   -0.1634 N   0  0  0  0  0  0  0  0  0  0  0  0
    9.8185   -0.1871    0.6742 H   0  0  0  0  0  0  0  0  0  0  0  0
    9.7725    1.4793    0.0346 H   0  0  0  0  0  0  0  0  0  0  0  0
    7.5599   -0.5754    1.9645 H   0  0  0  0  0  0  0  0  0  0  0  0
    5.2746   -0.8012    2.9382 H   0  0  0  0  0  0  0  0  0  0  0  0
    4.0041   -2.4328    1.0566 H   0  0  0  0  0  0  0  0  0  0  0  0
    3.1055   -1.6363    2.3869 H   0  0  0  0  0  0  0  0  0  0  0  0
    2.0997   -0.2317    0.9199 H   0  0  0  0  0  0  0  0  0  0  0  0
    2.0244   -2.4360   -0.3765 H   0  0  0  0  0  0  0  0  0  0  0  0
    3.5946   -1.9483   -1.1528 H   0  0  0  0  0  0  0  0  0  0  0  0
    2.3728   -0.6277   -2.6598 H   0  0  0  0  0  0  0  0  0  0  0  0
    0.2343   -1.4616    0.2191 H   0  0  0  0  0  0  0  0  0  0  0  0
   -1.9614   -0.5637    0.5656 H   0  0  0  0  0  0  0  0  0  0  0  0
   -3.8775   -0.0688    0.5363 H   0  0  0  0  0  0  0  0  0  0  0  0
   -5.5828    2.1742   -0.5895 H   0  0  0  0  0  0  0  0  0  0  0  0
   -6.4287   -0.0435   -1.2887 H   0  0  0  0  0  0  0  0  0  0  0  0
   -7.5138    0.7004   -0.0765 H   0  0  0  0  0  0  0  0  0  0  0  0
   -6.5742   -0.6675    1.7201 H   0  0  0  0  0  0  0  0  0  0  0  0
   -5.3873   -1.4165    0.6347 H   0  0  0  0  0  0  0  0  0  0  0  0
   -7.9676   -3.9571    0.5862 H   0  0  0  0  0  0  0  0  0  0  0  0
   -7.1684    2.4357    2.8015 H   0  0  0  0  0  0  0  0  0  0  0  0
   -1.5035    1.8824   -2.9546 H   0  0  0  0  0  0  0  0  0  0  0  0
    0.6965    0.9627   -3.2538 H   0  0  0  0  0  0  0  0  0  0  0  0
    3.2560    1.1505   -0.6696 H   0  0  0  0  0  0  0  0  0  0  0  0
  1  2  1  0
  2  3  2  0
  3  4  1  0
  4  5  2  0
  4  6  1  0
  6  7  2  0
  7  8  1  0
  7  9  1  0
  9 10  1  0
 10 11  1  0
 11 12  1  0
 12 13  1  0
 13 14  1  0
 14 15  2  0
 15 16  1  0
 16 17  2  0
 17 18  1  0
 18 19  2  0
 18 20  1  0
 20 21  1  0
 21 22  1  0
 22 23  1  0
 23 24  1  0
 24 25  2  0
 24 26  1  0
 21 27  1  0
 27 28  2  0
 27 29  1  0
 17 30  1  0
 30 31  2  0
 11 32  1  0
  8  2  1  0
 31 14  1  0
 32  6  1  0
  1 33  1  0
  1 34  1  0
  8 35  1  0
  9 36  1  0
 10 37  1  0
 10 38  1  0
 11 39  1  1
 12 40  1  0
 12 41  1  0
 13 42  1  0
 15 43  1  0
 16 44  1  0
 20 45  1  0
 21 46  1  6
 22 47  1  0
 22 48  1  0
 23 49  1  0
 23 50  1  0
 26 51  1  0
 29 52  1  0
 30 53  1  0
 31 54  1  0
 32 55  1  0
M  END
$$$$

     RDKit          3D

 55 57  0  0  0  0  0  0  0  0999 V2000
    9.7375   -0.7514    0.0692 N   0  0  0  0  0  0  0  0  0  0  0  0
    8.4103   -1.1321   -0.0342 C   0  0  0  0  0  0  0  0  0  0  0  0
    7.8510   -2.4443    0.1246 N   0  0  0  0  0  0  0  0  0  0  0  0
    6.4983   -2.3565    0.2672 C   0  0  0  0  0  0  0  0  0  0  0  0
    5.9202   -3.5770    0.5554 O   0  0  0  0  0  0  0  0  0  0  0  0
    5.6496   -1.4250    0.2251 C   0  0  0  0  0  0  0  0  0  0  0  0
    6.1940   -0.0720   -0.0310 C   0  0  0  0  0  0  0  0  0  0  0  0
    7.5170   -0.1807   -0.1150 N   0  0  0  0  0  0  0  0  0  0  0  0
    5.4677    1.0506    0.0382 N   0  0  0  0  0  0  0  0  0  0  0  0
    4.1567    0.9552    0.6059 C   0  0  0  0  0  0  0  0  0  0  0  0
    3.5542   -0.2134   -0.2116 C   0  0  2  0  0  0  0  0  0  0  0  0
    2.1401   -0.2210   -0.1635 C   0  0  0  0  0  0  0  0  0  0  0  0
    1.6379    1.0515   -0.7553 N   0  0  0  0  0  0  0  0  0  0  0  0
    0.2437    1.2266   -0.6058 C   0  0  0  0  0  0  0  0  0  0  0  0
   -0.4335    1.5158    0.5022 C   0  0  0  0  0  0  0  0  0  0  0  0
   -1.7613    1.5235    0.5943 C   0  0  0  0  0  0  0  0  0  0  0  0
   -2.4945    1.1788   -0.5714 C   0  0  0  0  0  0  0  0  0  0  0  0
   -3.8856    1.0885   -0.3418 C   0  0  0  0  0  0  0  0  0  0  0  0
   -4.5970    2.0795   -0.3943 O   0  0  0  0  0  0  0  0  0  0  0  0
   -4.4267   -0.2537   -0.0204 N   0  0  0  0  0  0  0  0  0  0  0  0
   -5.7463   -0.1774    0.6086 C   0  0  1  0  0  0  0  0  0  0  0  0
   -6.5335   -1.3885    0.1154 C   0  0  0  0  0  0  0  0  0  0  0  0
   -8.0190   -0.8844    0.0838 C   0  0  0  0  0  0  0  0  0  0  0  0
   -7.8080    0.3237   -0.8694 C   0  0  0  0  0  0  0  0  0  0  0  0
   -7.3719    0.1837   -1.9964 O   0  0  0  0  0  0  0  0  0  0  0  0
   -8.1765    1.6089   -0.4200 O   0  0  0  0  0  0  0  0  0  0  0  0
   -5.1386   -0.5310    2.0251 C   0  0  0  0  0  0  0  0  0  0  0  0
   -5.1730   -1.5936    2.5470 O   0  0  0  0  0  0  0  0  0  0  0  0
   -4.6131    0.5653    2.6850 O   0  0  0  0  0  0  0  0  0  0  0  0
   -1.8354    0.8229   -1.6936 C   0  0  0  0  0  0  0  0  0  0  0  0
   -0.4495    0.8348   -1.7885 C   0  0  0  0  0  0  0  0  0  0  0  0
    4.2393   -1.4027    0.1871 N   0  0  0  0  0  0  0  0  0  0  0  0
   10.0966   -0.8430    1.0913 H   0  0  0  0  0  0  0  0  0  0  0  0
   10.3118   -0.4221   -0.6448 H   0  0  0  0  0  0  0  0  0  0  0  0
    8.0041    0.7790   -0.5872 H   0  0  0  0  0  0  0  0  0  0  0  0
    5.8306    1.9370   -0.3135 H   0  0  0  0  0  0  0  0  0  0  0  0
    4.1096    0.5861    1.6531 H   0  0  0  0  0  0  0  0  0  0  0  0
    3.5541    1.8695    0.4451 H   0  0  0  0  0  0  0  0  0  0  0  0
    3.8879    0.0151   -1.2925 H   0  0  0  0  0  0  0  0  0  0  0  0
    1.7336   -0.3377    0.8445 H   0  0  0  0  0  0  0  0  0  0  0  0
    1.6795   -0.9944   -0.8249 H   0  0  0  0  0  0  0  0  0  0  0  0
    2.2307    1.6800   -1.2772 H   0  0  0  0  0  0  0  0  0  0  0  0
    0.1964    1.6183    1.4683 H   0  0  0  0  0  0  0  0  0  0  0  0
   -2.2484    1.7919    1.4860 H   0  0  0  0  0  0  0  0  0  0  0  0
   -3.9243   -1.0635   -0.3197 H   0  0  0  0  0  0  0  0  0  0  0  0
   -6.1876    0.7434    0.6558 H   0  0  0  0  0  0  0  0  0  0  0  0
   -6.2225   -1.7850   -0.7847 H   0  0  0  0  0  0  0  0  0  0  0  0
   -6.5599   -2.2233    0.9293 H   0  0  0  0  0  0  0  0  0  0  0  0
   -8.5813   -1.6483   -0.5419 H   0  0  0  0  0  0  0  0  0  0  0  0
   -8.4718   -0.6228    0.9633 H   0  0  0  0  0  0  0  0  0  0  0  0
   -7.5400    2.3693   -0.7037 H   0  0  0  0  0  0  0  0  0  0  0  0
   -4.0214    0.4553    3.5549 H   0  0  0  0  0  0  0  0  0  0  0  0
   -2.4265    0.3315   -2.5000 H   0  0  0  0  0  0  0  0  0  0  0  0
    0.0601    0.6434   -2.6640 H   0  0  0  0  0  0  0  0  0  0  0  0
    3.7343   -2.2842    0.4648 H   0  0  0  0  0  0  0  0  0  0  0  0
  1  2  1  0
  2  3  2  0
  3  4  1  0
  4  5  2  0
  4  6  1  0
  6  7  2  0
  7  8  1  0
  7  9  1  0
  9 10  1  0
 10 11  1  0
 11 12  1  0
 12 13  1  0
 13 14  1  0
 14 15  2  0
 15 16  1  0
 16 17  2  0
 17 18  1  0
 18 19  2  0
 18 20  1  0
 20 21  1  0
 21 22  1  0
 22 23  1  0
 23 24  1  0
 24 25  2  0
 24 26  1  0
 21 27  1  0
 27 28  2  0
 27 29  1  0
 17 30  1  0
 30 31  2  0
 11 32  1  0
  8  2  1  0
 31 14  1  0
 32  6  1  0
  1 33  1  0
  1 34  1  0
  8 35  1  0
  9 36  1  0
 10 37  1  0
 10 38  1  0
 11 39  1  6
 12 40  1  0
 12 41  1  0
 13 42  1  0
 15 43  1  0
 16 44  1  0
 20 45  1  0
 21 46  1  1
 22 47  1  0
 22 48  1  0
 23 49  1  0
 23 50  1  0
 26 51  1  0
 29 52  1  0
 30 53  1  0
 31 54  1  0
 32 55  1  0
M  END
$$$$

     RDKit          3D

 55 57  0  0  0  0  0  0  0  0999 V2000
    9.8013    1.6260   -1.2032 N   0  0  0  0  0  0  0  0  0  0  0  0
    8.4479    1.4913   -0.7907 C   0  0  0  0  0  0  0  0  0  0  0  0
    7.6199    2.5514   -0.7928 N   0  0  0  0  0  0  0  0  0  0  0  0
    6.3355    2.4689   -0.4096 C   0  0  0  0  0  0  0  0  0  0  0  0
    5.5493    3.4641   -0.4094 O   0  0  0  0  0  0  0  0  0  0  0  0
    5.8057    1.2589    0.0115 C   0  0  0  0  0  0  0  0  0  0  0  0
    6.6435    0.1701    0.0169 C   0  0  0  0  0  0  0  0  0  0  0  0
    7.9434    0.3140   -0.3844 N   0  0  0  0  0  0  0  0  0  0  0  0
    6.1450   -1.0849    0.4421 N   0  0  0  0  0  0  0  0  0  0  0  0
    4.7129   -1.2651    0.5551 C   0  0  0  0  0  0  0  0  0  0  0  0
    4.0583   -0.0199    1.1485 C   0  0  2  0  0  0  0  0  0  0  0  0
    2.5659   -0.1598    1.1666 C   0  0  0  0  0  0  0  0  0  0  0  0
    2.0471   -0.3431   -0.1887 N   0  0  0  0  0  0  0  0  0  0  0  0
    0.6467   -0.5137   -0.3011 C   0  0  0  0  0  0  0  0  0  0  0  0
    0.1176   -1.7757   -0.2227 C   0  0  0  0  0  0  0  0  0  0  0  0
   -1.2532   -1.9882   -0.3156 C   0  0  0  0  0  0  0  0  0  0  0  0
   -2.0885   -0.8921   -0.4913 C   0  0  0  0  0  0  0  0  0  0  0  0
   -3.5145   -1.1617   -0.5830 C   0  0  0  0  0  0  0  0  0  0  0  0
   -3.9247   -2.2951   -0.8887 O   0  0  0  0  0  0  0  0  0  0  0  0
   -4.4244   -0.1159   -0.3174 N   0  0  0  0  0  0  0  0  0  0  0  0
   -5.9010   -0.2957   -0.3847 C   0  0  1  0  0  0  0  0  0  0  0  0
   -6.3368   -0.1811    1.0278 C   0  0  0  0  0  0  0  0  0  0  0  0
   -7.7591   -0.2572    1.3824 C   0  0  0  0  0  0  0  0  0  0  0  0
   -8.6391    0.8288    0.9653 C   0  0  0  0  0  0  0  0  0  0  0  0
   -8.1769    1.9243    0.5759 O   0  0  0  0  0  0  0  0  0  0  0  0
  -10.0134    0.6725    0.9909 O   0  0  0  0  0  0  0  0  0  0  0  0
   -6.4089    0.6108   -1.3835 C   0  0  0  0  0  0  0  0  0  0  0  0
   -5.7001    1.5325   -1.8524 O   0  0  0  0  0  0  0  0  0  0  0  0
   -7.7023    0.4848   -1.8652 O   0  0  0  0  0  0  0  0  0  0  0  0
   -1.5760    0.3838   -0.5733 C   0  0  0  0  0  0  0  0  0  0  0  0
   -0.1886    0.5567   -0.4750 C   0  0  0  0  0  0  0  0  0  0  0  0
    4.4394    1.1557    0.4291 N   0  0  0  0  0  0  0  0  0  0  0  0
   10.0322    1.5024   -2.2092 H   0  0  0  0  0  0  0  0  0  0  0  0
   10.5801    1.8436   -0.5464 H   0  0  0  0  0  0  0  0  0  0  0  0
    8.5709   -0.5414   -0.3713 H   0  0  0  0  0  0  0  0  0  0  0  0
    6.8282   -1.8466    0.6629 H   0  0  0  0  0  0  0  0  0  0  0  0
    4.3081   -1.4068   -0.4734 H   0  0  0  0  0  0  0  0  0  0  0  0
    4.5263   -2.1359    1.2008 H   0  0  0  0  0  0  0  0  0  0  0  0
    4.4186    0.0100    2.2154 H   0  0  0  0  0  0  0  0  0  0  0  0
    2.1959   -0.9441    1.8413 H   0  0  0  0  0  0  0  0  0  0  0  0
    2.1601    0.8388    1.4895 H   0  0  0  0  0  0  0  0  0  0  0  0
    2.6610   -0.3468   -1.0209 H   0  0  0  0  0  0  0  0  0  0  0  0
    0.7492   -2.6383   -0.0866 H   0  0  0  0  0  0  0  0  0  0  0  0
   -1.6560   -2.9978   -0.2516 H   0  0  0  0  0  0  0  0  0  0  0  0
   -4.0486    0.8171   -0.0629 H   0  0  0  0  0  0  0  0  0  0  0  0
   -5.9800   -1.3877   -0.7365 H   0  0  0  0  0  0  0  0  0  0  0  0
   -5.8285    0.7233    1.4525 H   0  0  0  0  0  0  0  0  0  0  0  0
   -5.8253   -1.0505    1.5636 H   0  0  0  0  0  0  0  0  0  0  0  0
   -8.2133   -1.2323    1.0084 H   0  0  0  0  0  0  0  0  0  0  0  0
   -7.8027   -0.4177    2.5107 H   0  0  0  0  0  0  0  0  0  0  0  0
  -10.5620    1.3205    0.4269 H   0  0  0  0  0  0  0  0  0  0  0  0
   -8.1693    1.1288   -2.4545 H   0  0  0  0  0  0  0  0  0  0  0  0
   -2.1985    1.2558   -0.7130 H   0  0  0  0  0  0  0  0  0  0  0  0
    0.2212    1.5591   -0.5392 H   0  0  0  0  0  0  0  0  0  0  0  0
    3.7607    1.9079    0.2144 H   0  0  0  0  0  0  0  0  0  0  0  0
  1  2  1  0
  2  3  2  0
  3  4  1  0
  4  5  2  0
  4  6  1  0
  6  7  2  0
  7  8  1  0
  7  9  1  0
  9 10  1  0
 10 11  1  0
 11 12  1  0
 12 13  1  0
 13 14  1  0
 14 15  2  0
 15 16  1  0
 16 17  2  0
 17 18  1  0
 18 19  2  0
 18 20  1  0
 20 21  1  0
 21 22  1  0
 22 23  1  0
 23 24  1  0
 24 25  2  0
 24 26  1  0
 21 27  1  0
 27 28  2  0
 27 29  1  0
 17 30  1  0
 30 31  2  0
 11 32  1  0
  8  2  1  0
 31 14  1  0
 32  6  1  0
  1 33  1  0
  1 34  1  0
  8 35  1  0
  9 36  1  0
 10 37  1  0
 10 38  1  0
 11 39  1  1
 12 40  1  0
 12 41  1  0
 13 42  1  0
 15 43  1  0
 16 44  1  0
 20 45  1  0
 21 46  1  6
 22 47  1  0
 22 48  1  0
 23 49  1  0
 23 50  1  0
 26 51  1  0
 29 52  1  0
 30 53  1  0
 31 54  1  0
 32 55  1  0
M  END
$$$$

     RDKit          3D

 55 57  0  0  0  0  0  0  0  0999 V2000
    8.2227    2.5470    1.1158 N   0  0  0  0  0  0  0  0  0  0  0  0
    7.3304    1.4422    0.9865 C   0  0  0  0  0  0  0  0  0  0  0  0
    6.7430    0.8731    2.0572 N   0  0  0  0  0  0  0  0  0  0  0  0
    5.9104   -0.1653    1.8833 C   0  0  0  0  0  0  0  0  0  0  0  0
    5.3334   -0.7344    2.8610 O   0  0  0  0  0  0  0  0  0  0  0  0
    5.6238   -0.6858    0.6326 C   0  0  0  0  0  0  0  0  0  0  0  0
    6.2408   -0.0801   -0.4369 C   0  0  0  0  0  0  0  0  0  0  0  0
    7.0584    0.9446   -0.2293 N   0  0  0  0  0  0  0  0  0  0  0  0
    5.9613   -0.6009   -1.7410 N   0  0  0  0  0  0  0  0  0  0  0  0
    5.3383   -1.8708   -1.9527 C   0  0  0  0  0  0  0  0  0  0  0  0
    4.2540   -2.1474   -0.9078 C   0  0  2  0  0  0  0  0  0  0  0  0
    3.0354   -1.3242   -1.2613 C   0  0  0  0  0  0  0  0  0  0  0  0
    2.0080   -1.5773   -0.3036 N   0  0  0  0  0  0  0  0  0  0  0  0
    0.7123   -0.9408   -0.3843 C   0  0  0  0  0  0  0  0  0  0  0  0
   -0.3056   -1.2638    0.4796 C   0  0  0  0  0  0  0  0  0  0  0  0
   -1.5583   -0.6771    0.4268 C   0  0  0  0  0  0  0  0  0  0  0  0
   -1.8110    0.2792   -0.5338 C   0  0  0  0  0  0  0  0  0  0  0  0
   -3.1167    0.9241   -0.6524 C   0  0  0  0  0  0  0  0  0  0  0  0
   -3.2212    1.9644   -1.3376 O   0  0  0  0  0  0  0  0  0  0  0  0
   -4.2571    0.4148   -0.0251 N   0  0  0  0  0  0  0  0  0  0  0  0
   -5.5993    1.0493   -0.1296 C   0  0  1  0  0  0  0  0  0  0  0  0
   -6.3792    0.0899   -0.9886 C   0  0  0  0  0  0  0  0  0  0  0  0
   -7.8069    0.4395   -1.2175 C   0  0  0  0  0  0  0  0  0  0  0  0
   -8.5781    0.2620    0.0272 C   0  0  0  0  0  0  0  0  0  0  0  0
   -8.0929   -0.5059    0.9202 O   0  0  0  0  0  0  0  0  0  0  0  0
   -9.7916    0.8590    0.3159 O   0  0  0  0  0  0  0  0  0  0  0  0
   -6.0790    1.3232    1.2013 C   0  0  0  0  0  0  0  0  0  0  0  0
   -5.5163    0.8238    2.2067 O   0  0  0  0  0  0  0  0  0  0  0  0
   -7.1696    2.1500    1.4529 O   0  0  0  0  0  0  0  0  0  0  0  0
   -0.7859    0.6203   -1.4207 C   0  0  0  0  0  0  0  0  0  0  0  0
    0.4572    0.0173   -1.3450 C   0  0  0  0  0  0  0  0  0  0  0  0
    4.7488   -1.7826    0.4183 N   0  0  0  0  0  0  0  0  0  0  0  0
    8.9121    2.6958    0.3517 H   0  0  0  0  0  0  0  0  0  0  0  0
    8.2092    3.1943    1.9298 H   0  0  0  0  0  0  0  0  0  0  0  0
    7.5098    1.3795   -1.0746 H   0  0  0  0  0  0  0  0  0  0  0  0
    6.2312   -0.0124   -2.5560 H   0  0  0  0  0  0  0  0  0  0  0  0
    6.0973   -2.6859   -1.8467 H   0  0  0  0  0  0  0  0  0  0  0  0
    4.8561   -1.9373   -2.9347 H   0  0  0  0  0  0  0  0  0  0  0  0
    4.0397   -3.2322   -0.8849 H   0  0  0  0  0  0  0  0  0  0  0  0
    3.3528   -0.2479   -1.1240 H   0  0  0  0  0  0  0  0  0  0  0  0
    2.6944   -1.5102   -2.2919 H   0  0  0  0  0  0  0  0  0  0  0  0
    2.1797   -2.2374    0.4842 H   0  0  0  0  0  0  0  0  0  0  0  0
   -0.0935   -2.0195    1.2349 H   0  0  0  0  0  0  0  0  0  0  0  0
   -2.3359   -0.9594    1.1265 H   0  0  0  0  0  0  0  0  0  0  0  0
   -4.2434   -0.4370    0.5542 H   0  0  0  0  0  0  0  0  0  0  0  0
   -5.4002    2.0034   -0.7170 H   0  0  0  0  0  0  0  0  0  0  0  0
   -6.3393   -0.9540   -0.5591 H   0  0  0  0  0  0  0  0  0  0  0  0
   -5.8752   -0.0424   -1.9927 H   0  0  0  0  0  0  0  0  0  0  0  0
   -7.8661    1.5171   -1.5757 H   0  0  0  0  0  0  0  0  0  0  0  0
   -8.1982   -0.2057   -2.0445 H   0  0  0  0  0  0  0  0  0  0  0  0
   -9.9894    1.2532    1.2502 H   0  0  0  0  0  0  0  0  0  0  0  0
   -7.3987    2.4760    2.4033 H   0  0  0  0  0  0  0  0  0  0  0  0
   -0.9669    1.3690   -2.1798 H   0  0  0  0  0  0  0  0  0  0  0  0
    1.2679    0.2765   -2.0330 H   0  0  0  0  0  0  0  0  0  0  0  0
    4.4471   -2.3509    1.2460 H   0  0  0  0  0  0  0  0  0  0  0  0
  1  2  1  0
  2  3  2  0
  3  4  1  0
  4  5  2  0
  4  6  1  0
  6  7  2  0
  7  8  1  0
  7  9  1  0
  9 10  1  0
 10 11  1  0
 11 12  1  0
 12 13  1  0
 13 14  1  0
 14 15  2  0
 15 16  1  0
 16 17  2  0
 17 18  1  0
 18 19  2  0
 18 20  1  0
 20 21  1  0
 21 22  1  0
 22 23  1  0
 23 24  1  0
 24 25  2  0
 24 26  1  0
 21 27  1  0
 27 28  2  0
 27 29  1  0
 17 30  1  0
 30 31  2  0
 11 32  1  0
  8  2  1  0
 31 14  1  0
 32  6  1  0
  1 33  1  0
  1 34  1  0
  8 35  1  0
  9 36  1  0
 10 37  1  0
 10 38  1  0
 11 39  1  1
 12 40  1  0
 12 41  1  0
 13 42  1  0
 15 43  1  0
 16 44  1  0
 20 45  1  0
 21 46  1  6
 22 47  1  0
 22 48  1  0
 23 49  1  0
 23 50  1  0
 26 51  1  0
 29 52  1  0
 30 53  1  0
 31 54  1  0
 32 55  1  0
M  END
$$$$

     RDKit          3D

 55 57  0  0  0  0  0  0  0  0999 V2000
    9.0693    1.2569    0.2419 N   0  0  0  0  0  0  0  0  0  0  0  0
    7.7119    0.8919   -0.0191 C   0  0  0  0  0  0  0  0  0  0  0  0
    7.1997    0.9348   -1.2596 N   0  0  0  0  0  0  0  0  0  0  0  0
    5.9078    0.5896   -1.5412 C   0  0  0  0  0  0  0  0  0  0  0  0
    5.4523    0.6376   -2.7034 O   0  0  0  0  0  0  0  0  0  0  0  0
    5.0853    0.1782   -0.5191 C   0  0  0  0  0  0  0  0  0  0  0  0
    5.6192    0.1355    0.7579 C   0  0  0  0  0  0  0  0  0  0  0  0
    6.8877    0.4840    0.9766 N   0  0  0  0  0  0  0  0  0  0  0  0
    4.7210   -0.3135    1.7946 N   0  0  0  0  0  0  0  0  0  0  0  0
    3.7101   -1.3026    1.5131 C   0  0  0  0  0  0  0  0  0  0  0  0
    2.9909   -0.9481    0.2491 C   0  0  2  0  0  0  0  0  0  0  0  0
    2.5104   -2.2038   -0.4784 C   0  0  0  0  0  0  0  0  0  0  0  0
    1.8229   -1.7739   -1.6718 N   0  0  0  0  0  0  0  0  0  0  0  0
    0.5710   -1.1475   -1.5815 C   0  0  0  0  0  0  0  0  0  0  0  0
    0.0433   -0.4972   -2.6751 C   0  0  0  0  0  0  0  0  0  0  0  0
   -1.1821    0.0799   -2.5758 C   0  0  0  0  0  0  0  0  0  0  0  0
   -1.9632    0.0597   -1.4157 C   0  0  0  0  0  0  0  0  0  0  0  0
   -3.2638    0.6939   -1.3815 C   0  0  0  0  0  0  0  0  0  0  0  0
   -3.6533    1.3550   -2.3712 O   0  0  0  0  0  0  0  0  0  0  0  0
   -4.0863    0.5690   -0.2462 N   0  0  0  0  0  0  0  0  0  0  0  0
   -5.4108    1.1913   -0.1677 C   0  0  1  0  0  0  0  0  0  0  0  0
   -6.4718    0.1568   -0.1876 C   0  0  0  0  0  0  0  0  0  0  0  0
   -6.4707   -0.8596    0.8866 C   0  0  0  0  0  0  0  0  0  0  0  0
   -6.6242   -0.2527    2.2128 C   0  0  0  0  0  0  0  0  0  0  0  0
   -5.6564    0.0057    2.9329 O   0  0  0  0  0  0  0  0  0  0  0  0
   -7.9238    0.0301    2.6469 O   0  0  0  0  0  0  0  0  0  0  0  0
   -5.4593    2.1732    0.9129 C   0  0  0  0  0  0  0  0  0  0  0  0
   -4.4348    2.4250    1.5861 O   0  0  0  0  0  0  0  0  0  0  0  0
   -6.6365    2.8358    1.2055 O   0  0  0  0  0  0  0  0  0  0  0  0
   -1.4201   -0.5955   -0.3298 C   0  0  0  0  0  0  0  0  0  0  0  0
   -0.1585   -1.1954   -0.4160 C   0  0  0  0  0  0  0  0  0  0  0  0
    3.7442   -0.1915   -0.6998 N   0  0  0  0  0  0  0  0  0  0  0  0
    9.4871    2.1550   -0.0832 H   0  0  0  0  0  0  0  0  0  0  0  0
    9.7174    0.6344    0.7782 H   0  0  0  0  0  0  0  0  0  0  0  0
    7.2502    0.4422    1.9363 H   0  0  0  0  0  0  0  0  0  0  0  0
    4.8791    0.1341    2.7397 H   0  0  0  0  0  0  0  0  0  0  0  0
    2.9855   -1.3315    2.3538 H   0  0  0  0  0  0  0  0  0  0  0  0
    4.2615   -2.2781    1.4253 H   0  0  0  0  0  0  0  0  0  0  0  0
    2.1046   -0.3506    0.5360 H   0  0  0  0  0  0  0  0  0  0  0  0
    3.4155   -2.7530   -0.7783 H   0  0  0  0  0  0  0  0  0  0  0  0
    1.8812   -2.8322    0.1856 H   0  0  0  0  0  0  0  0  0  0  0  0
    2.2481   -1.9229   -2.6292 H   0  0  0  0  0  0  0  0  0  0  0  0
    0.6338   -0.4617   -3.6088 H   0  0  0  0  0  0  0  0  0  0  0  0
   -1.6070    0.5920   -3.4215 H   0  0  0  0  0  0  0  0  0  0  0  0
   -3.8135    0.0242    0.6207 H   0  0  0  0  0  0  0  0  0  0  0  0
   -5.5015    1.7234   -1.1819 H   0  0  0  0  0  0  0  0  0  0  0  0
   -7.4737    0.6919   -0.2060 H   0  0  0  0  0  0  0  0  0  0  0  0
   -6.3728   -0.3978   -1.1672 H   0  0  0  0  0  0  0  0  0  0  0  0
   -5.5440   -1.4815    0.8363 H   0  0  0  0  0  0  0  0  0  0  0  0
   -7.3138   -1.5820    0.6785 H   0  0  0  0  0  0  0  0  0  0  0  0
   -8.1299    0.2219    3.6341 H   0  0  0  0  0  0  0  0  0  0  0  0
   -6.8595    3.1537    2.1615 H   0  0  0  0  0  0  0  0  0  0  0  0
   -1.9389   -0.6644    0.6017 H   0  0  0  0  0  0  0  0  0  0  0  0
    0.1938   -1.7052    0.4945 H   0  0  0  0  0  0  0  0  0  0  0  0
    3.2653    0.1044   -1.5822 H   0  0  0  0  0  0  0  0  0  0  0  0
  1  2  1  0
  2  3  2  0
  3  4  1  0
  4  5  2  0
  4  6  1  0
  6  7  2  0
  7  8  1  0
  7  9  1  0
  9 10  1  0
 10 11  1  0
 11 12  1  0
 12 13  1  0
 13 14  1  0
 14 15  2  0
 15 16  1  0
 16 17  2  0
 17 18  1  0
 18 19  2  0
 18 20  1  0
 20 21  1  0
 21 22  1  0
 22 23  1  0
 23 24  1  0
 24 25  2  0
 24 26  1  0
 21 27  1  0
 27 28  2  0
 27 29  1  0
 17 30  1  0
 30 31  2  0
 11 32  1  0
  8  2  1  0
 31 14  1  0
 32  6  1  0
  1 33  1  0
  1 34  1  0
  8 35  1  0
  9 36  1  0
 10 37  1  0
 10 38  1  0
 11 39  1  1
 12 40  1  0
 12 41  1  0
 13 42  1  0
 15 43  1  0
 16 44  1  0
 20 45  1  0
 21 46  1  6
 22 47  1  0
 22 48  1  0
 23 49  1  0
 23 50  1  0
 26 51  1  0
 29 52  1  0
 30 53  1  0
 31 54  1  0
 32 55  1  0
M  END
$$$$

     RDKit          3D

 55 57  0  0  0  0  0  0  0  0999 V2000
   -9.7476   -0.0379   -0.2863 N   0  0  0  0  0  0  0  0  0  0  0  0
   -8.4151    0.2837    0.0657 C   0  0  0  0  0  0  0  0  0  0  0  0
   -8.0920    0.9238    1.2057 N   0  0  0  0  0  0  0  0  0  0  0  0
   -6.8093    1.2232    1.5288 C   0  0  0  0  0  0  0  0  0  0  0  0
   -6.4939    1.8213    2.5918 O   0  0  0  0  0  0  0  0  0  0  0  0
   -5.8061    0.8684    0.6772 C   0  0  0  0  0  0  0  0  0  0  0  0
   -6.1109    0.2140   -0.4935 C   0  0  0  0  0  0  0  0  0  0  0  0
   -7.4179   -0.0580   -0.7608 N   0  0  0  0  0  0  0  0  0  0  0  0
   -5.0713   -0.1480   -1.3643 N   0  0  0  0  0  0  0  0  0  0  0  0
   -3.6688    0.1177   -1.1554 C   0  0  0  0  0  0  0  0  0  0  0  0
   -3.3609    0.4127    0.2980 C   0  0  2  0  0  0  0  0  0  0  0  0
   -3.2183   -0.8948    1.0799 C   0  0  0  0  0  0  0  0  0  0  0  0
   -2.1424   -1.6383    0.4745 N   0  0  0  0  0  0  0  0  0  0  0  0
   -0.8157   -1.1332    0.5543 C   0  0  0  0  0  0  0  0  0  0  0  0
    0.1791   -1.6595   -0.2832 C   0  0  0  0  0  0  0  0  0  0  0  0
    1.4754   -1.2017   -0.2153 C   0  0  0  0  0  0  0  0  0  0  0  0
    1.8680   -0.2153    0.6644 C   0  0  0  0  0  0  0  0  0  0  0  0
    3.2574    0.2690    0.7176 C   0  0  0  0  0  0  0  0  0  0  0  0
    3.5806    0.9803    1.7059 O   0  0  0  0  0  0  0  0  0  0  0  0
    4.2162   -0.0221   -0.2669 N   0  0  0  0  0  0  0  0  0  0  0  0
    5.5892    0.5016   -0.1354 C   0  0  1  0  0  0  0  0  0  0  0  0
    6.4574   -0.7133    0.0465 C   0  0  0  0  0  0  0  0  0  0  0  0
    7.9091   -0.5238    0.1419 C   0  0  0  0  0  0  0  0  0  0  0  0
    8.5240   -0.1104   -1.1161 C   0  0  0  0  0  0  0  0  0  0  0  0
    7.8946   -0.3174   -2.2062 O   0  0  0  0  0  0  0  0  0  0  0  0
    9.7611    0.4992   -1.2018 O   0  0  0  0  0  0  0  0  0  0  0  0
    5.9841    1.3774   -1.2206 C   0  0  0  0  0  0  0  0  0  0  0  0
    5.3322    1.4104   -2.2894 O   0  0  0  0  0  0  0  0  0  0  0  0
    7.0883    2.2069   -1.0962 O   0  0  0  0  0  0  0  0  0  0  0  0
    0.8988    0.3081    1.4917 C   0  0  0  0  0  0  0  0  0  0  0  0
   -0.4236   -0.1528    1.4290 C   0  0  0  0  0  0  0  0  0  0  0  0
   -4.4267    1.1399    0.9326 N   0  0  0  0  0  0  0  0  0  0  0  0
  -10.1951   -0.9002    0.0922 H   0  0  0  0  0  0  0  0  0  0  0  0
  -10.3243    0.5539   -0.9203 H   0  0  0  0  0  0  0  0  0  0  0  0
   -7.6279   -0.5550   -1.6542 H   0  0  0  0  0  0  0  0  0  0  0  0
   -5.3245   -0.6556   -2.2446 H   0  0  0  0  0  0  0  0  0  0  0  0
   -3.1154   -0.8104   -1.4759 H   0  0  0  0  0  0  0  0  0  0  0  0
   -3.3024    0.9166   -1.8322 H   0  0  0  0  0  0  0  0  0  0  0  0
   -2.4550    1.0297    0.3109 H   0  0  0  0  0  0  0  0  0  0  0  0
   -2.9375   -0.6815    2.1293 H   0  0  0  0  0  0  0  0  0  0  0  0
   -4.1795   -1.4598    1.0509 H   0  0  0  0  0  0  0  0  0  0  0  0
   -2.3308   -2.5609   -0.0305 H   0  0  0  0  0  0  0  0  0  0  0  0
   -0.1002   -2.4267   -0.9757 H   0  0  0  0  0  0  0  0  0  0  0  0
    2.2526   -1.6219   -0.8750 H   0  0  0  0  0  0  0  0  0  0  0  0
    3.9577   -0.6014   -1.0835 H   0  0  0  0  0  0  0  0  0  0  0  0
    5.6056    1.0742    0.8647 H   0  0  0  0  0  0  0  0  0  0  0  0
    6.0638   -1.3504    0.8950 H   0  0  0  0  0  0  0  0  0  0  0  0
    6.2338   -1.3787   -0.8536 H   0  0  0  0  0  0  0  0  0  0  0  0
    8.3750   -1.4871    0.4593 H   0  0  0  0  0  0  0  0  0  0  0  0
    8.1197    0.2543    0.9227 H   0  0  0  0  0  0  0  0  0  0  0  0
    9.8913    1.1409   -1.9935 H   0  0  0  0  0  0  0  0  0  0  0  0
    7.6001    2.5433   -1.9200 H   0  0  0  0  0  0  0  0  0  0  0  0
    1.1499    1.0735    2.1916 H   0  0  0  0  0  0  0  0  0  0  0  0
   -1.1625    0.2788    2.1091 H   0  0  0  0  0  0  0  0  0  0  0  0
   -4.1892    1.8936    1.6047 H   0  0  0  0  0  0  0  0  0  0  0  0
  1  2  1  0
  2  3  2  0
  3  4  1  0
  4  5  2  0
  4  6  1  0
  6  7  2  0
  7  8  1  0
  7  9  1  0
  9 10  1  0
 10 11  1  0
 11 12  1  0
 12 13  1  0
 13 14  1  0
 14 15  2  0
 15 16  1  0
 16 17  2  0
 17 18  1  0
 18 19  2  0
 18 20  1  0
 20 21  1  0
 21 22  1  0
 22 23  1  0
 23 24  1  0
 24 25  2  0
 24 26  1  0
 21 27  1  0
 27 28  2  0
 27 29  1  0
 17 30  1  0
 30 31  2  0
 11 32  1  0
  8  2  1  0
 31 14  1  0
 32  6  1  0
  1 33  1  0
  1 34  1  0
  8 35  1  0
  9 36  1  0
 10 37  1  0
 10 38  1  0
 11 39  1  6
 12 40  1  0
 12 41  1  0
 13 42  1  0
 15 43  1  0
 16 44  1  0
 20 45  1  0
 21 46  1  1
 22 47  1  0
 22 48  1  0
 23 49  1  0
 23 50  1  0
 26 51  1  0
 29 52  1  0
 30 53  1  0
 31 54  1  0
 32 55  1  0
M  END
$$$$

     RDKit          3D

 55 57  0  0  0  0  0  0  0  0999 V2000
    9.3223   -0.2020    0.6109 N   0  0  0  0  0  0  0  0  0  0  0  0
    7.9498   -0.5362    0.4968 C   0  0  0  0  0  0  0  0  0  0  0  0
    7.3732   -1.2631    1.4606 N   0  0  0  0  0  0  0  0  0  0  0  0
    6.0632   -1.5610    1.3158 C   0  0  0  0  0  0  0  0  0  0  0  0
    5.4325   -2.2373    2.1654 O   0  0  0  0  0  0  0  0  0  0  0  0
    5.3427   -1.1253    0.2018 C   0  0  0  0  0  0  0  0  0  0  0  0
    5.9786   -0.3759   -0.7709 C   0  0  0  0  0  0  0  0  0  0  0  0
    7.2818   -0.0966   -0.5973 N   0  0  0  0  0  0  0  0  0  0  0  0
    5.2439    0.0794   -1.9226 N   0  0  0  0  0  0  0  0  0  0  0  0
    3.9783   -0.5756   -2.1886 C   0  0  0  0  0  0  0  0  0  0  0  0
    3.1973   -0.6173   -0.8919 C   0  0  2  0  0  0  0  0  0  0  0  0
    3.1439    0.7756   -0.3266 C   0  0  0  0  0  0  0  0  0  0  0  0
    2.4210    0.8749    0.9124 N   0  0  0  0  0  0  0  0  0  0  0  0
    1.0339    0.6490    0.9284 C   0  0  0  0  0  0  0  0  0  0  0  0
    0.2764    0.5466   -0.2133 C   0  0  0  0  0  0  0  0  0  0  0  0
   -1.1014    0.3082   -0.1518 C   0  0  0  0  0  0  0  0  0  0  0  0
   -1.7671    0.1649    1.0466 C   0  0  0  0  0  0  0  0  0  0  0  0
   -3.1956   -0.0831    1.1580 C   0  0  0  0  0  0  0  0  0  0  0  0
   -3.6831   -0.2049    2.3073 O   0  0  0  0  0  0  0  0  0  0  0  0
   -4.0785   -0.1972    0.0583 N   0  0  0  0  0  0  0  0  0  0  0  0
   -5.5152   -0.4485    0.2221 C   0  0  1  0  0  0  0  0  0  0  0  0
   -6.1941    0.8053   -0.2694 C   0  0  0  0  0  0  0  0  0  0  0  0
   -7.6772    0.7023   -0.1569 C   0  0  0  0  0  0  0  0  0  0  0  0
   -8.3270    1.9772   -0.6272 C   0  0  0  0  0  0  0  0  0  0  0  0
   -7.6689    2.9547   -1.0446 O   0  0  0  0  0  0  0  0  0  0  0  0
   -9.7052    2.0314   -0.5807 O   0  0  0  0  0  0  0  0  0  0  0  0
   -5.9002   -1.6571   -0.4927 C   0  0  0  0  0  0  0  0  0  0  0  0
   -5.0519   -2.3137   -1.1899 O   0  0  0  0  0  0  0  0  0  0  0  0
   -7.1732   -2.1803   -0.4758 O   0  0  0  0  0  0  0  0  0  0  0  0
   -0.9895    0.2714    2.1803 C   0  0  0  0  0  0  0  0  0  0  0  0
    0.3645    0.5049    2.1437 C   0  0  0  0  0  0  0  0  0  0  0  0
    3.9841   -1.4335    0.0480 N   0  0  0  0  0  0  0  0  0  0  0  0
    9.9995   -0.6716   -0.0025 H   0  0  0  0  0  0  0  0  0  0  0  0
    9.5873    0.5184    1.3253 H   0  0  0  0  0  0  0  0  0  0  0  0
    7.7821    0.4745   -1.3307 H   0  0  0  0  0  0  0  0  0  0  0  0
    5.6410    0.8470   -2.5099 H   0  0  0  0  0  0  0  0  0  0  0  0
    3.4372    0.0729   -2.9299 H   0  0  0  0  0  0  0  0  0  0  0  0
    4.1097   -1.5707   -2.6259 H   0  0  0  0  0  0  0  0  0  0  0  0
    2.2434   -1.1319   -0.9826 H   0  0  0  0  0  0  0  0  0  0  0  0
    2.6106    1.4676   -1.0443 H   0  0  0  0  0  0  0  0  0  0  0  0
    4.1551    1.1660   -0.2099 H   0  0  0  0  0  0  0  0  0  0  0  0
    2.8970    1.1160    1.8296 H   0  0  0  0  0  0  0  0  0  0  0  0
    0.7427    0.6598   -1.1842 H   0  0  0  0  0  0  0  0  0  0  0  0
   -1.6798    0.2304   -1.0549 H   0  0  0  0  0  0  0  0  0  0  0  0
   -3.6728   -0.0957   -0.8925 H   0  0  0  0  0  0  0  0  0  0  0  0
   -5.7731   -0.5373    1.3025 H   0  0  0  0  0  0  0  0  0  0  0  0
   -5.9325    1.0257   -1.3347 H   0  0  0  0  0  0  0  0  0  0  0  0
   -5.8219    1.7090    0.2892 H   0  0  0  0  0  0  0  0  0  0  0  0
   -8.0261    0.5165    0.8767 H   0  0  0  0  0  0  0  0  0  0  0  0
   -8.0663   -0.1449   -0.7888 H   0  0  0  0  0  0  0  0  0  0  0  0
  -10.1295    2.9656   -0.5042 H   0  0  0  0  0  0  0  0  0  0  0  0
   -7.5530   -2.6893   -1.2830 H   0  0  0  0  0  0  0  0  0  0  0  0
   -1.4557    0.1681    3.1483 H   0  0  0  0  0  0  0  0  0  0  0  0
    0.9714    0.5874    3.0441 H   0  0  0  0  0  0  0  0  0  0  0  0
    3.5744   -2.2207    0.5956 H   0  0  0  0  0  0  0  0  0  0  0  0
  1  2  1  0
  2  3  2  0
  3  4  1  0
  4  5  2  0
  4  6  1  0
  6  7  2  0
  7  8  1  0
  7  9  1  0
  9 10  1  0
 10 11  1  0
 11 12  1  0
 12 13  1  0
 13 14  1  0
 14 15  2  0
 15 16  1  0
 16 17  2  0
 17 18  1  0
 18 19  2  0
 18 20  1  0
 20 21  1  0
 21 22  1  0
 22 23  1  0
 23 24  1  0
 24 25  2  0
 24 26  1  0
 21 27  1  0
 27 28  2  0
 27 29  1  0
 17 30  1  0
 30 31  2  0
 11 32  1  0
  8  2  1  0
 31 14  1  0
 32  6  1  0
  1 33  1  0
  1 34  1  0
  8 35  1  0
  9 36  1  0
 10 37  1  0
 10 38  1  0
 11 39  1  6
 12 40  1  0
 12 41  1  0
 13 42  1  0
 15 43  1  0
 16 44  1  0
 20 45  1  0
 21 46  1  1
 22 47  1  0
 22 48  1  0
 23 49  1  0
 23 50  1  0
 26 51  1  0
 29 52  1  0
 30 53  1  0
 31 54  1  0
 32 55  1  0
M  END
$$$$

     RDKit          3D

 55 57  0  0  0  0  0  0  0  0999 V2000
   -9.5066    1.8863    1.7017 N   0  0  0  0  0  0  0  0  0  0  0  0
   -8.2211    1.6533    1.1411 C   0  0  0  0  0  0  0  0  0  0  0  0
   -7.7151    2.6320    0.3667 N   0  0  0  0  0  0  0  0  0  0  0  0
   -6.4921    2.5009   -0.2080 C   0  0  0  0  0  0  0  0  0  0  0  0
   -6.0227    3.4302   -0.9418 O   0  0  0  0  0  0  0  0  0  0  0  0
   -5.7952    1.3392    0.0267 C   0  0  0  0  0  0  0  0  0  0  0  0
   -6.3067    0.3445    0.8122 C   0  0  0  0  0  0  0  0  0  0  0  0
   -7.5275    0.5194    1.3643 N   0  0  0  0  0  0  0  0  0  0  0  0
   -5.5384   -0.8305    1.0144 N   0  0  0  0  0  0  0  0  0  0  0  0
   -4.2135   -0.9752    0.4710 C   0  0  0  0  0  0  0  0  0  0  0  0
   -3.9484   -0.1585   -0.7465 C   0  0  2  0  0  0  0  0  0  0  0  0
   -2.4519   -0.0077   -0.9051 C   0  0  0  0  0  0  0  0  0  0  0  0
   -1.7651   -1.2494   -1.0449 N   0  0  0  0  0  0  0  0  0  0  0  0
   -0.3634   -1.2641   -1.1771 C   0  0  0  0  0  0  0  0  0  0  0  0
    0.3380   -2.4495   -1.3673 C   0  0  0  0  0  0  0  0  0  0  0  0
    1.7341   -2.4105   -1.4820 C   0  0  0  0  0  0  0  0  0  0  0  0
    2.4201   -1.2358   -1.4101 C   0  0  0  0  0  0  0  0  0  0  0  0
    3.8690   -1.1735   -1.5285 C   0  0  0  0  0  0  0  0  0  0  0  0
    4.4258   -1.4635   -2.6448 O   0  0  0  0  0  0  0  0  0  0  0  0
    4.7173   -0.8114   -0.4721 N   0  0  0  0  0  0  0  0  0  0  0  0
    6.1480   -0.7303   -0.5000 C   0  0  1  0  0  0  0  0  0  0  0  0
    6.6952    0.5552    0.0207 C   0  0  0  0  0  0  0  0  0  0  0  0
    6.2863    0.8055    1.4662 C   0  0  0  0  0  0  0  0  0  0  0  0
    6.9072    2.0981    1.8530 C   0  0  0  0  0  0  0  0  0  0  0  0
    8.1432    2.2424    1.6585 O   0  0  0  0  0  0  0  0  0  0  0  0
    6.2049    3.1650    2.4143 O   0  0  0  0  0  0  0  0  0  0  0  0
    6.6672   -1.8580    0.3405 C   0  0  0  0  0  0  0  0  0  0  0  0
    5.9412   -2.6728    0.9386 O   0  0  0  0  0  0  0  0  0  0  0  0
    8.0416   -1.9831    0.4460 O   0  0  0  0  0  0  0  0  0  0  0  0
    1.7339   -0.0636   -1.2225 C   0  0  0  0  0  0  0  0  0  0  0  0
    0.3525   -0.0943   -1.1090 C   0  0  0  0  0  0  0  0  0  0  0  0
   -4.4964    1.1819   -0.5718 N   0  0  0  0  0  0  0  0  0  0  0  0
  -10.3233    1.8937    1.0540 H   0  0  0  0  0  0  0  0  0  0  0  0
   -9.5943    2.0383    2.7072 H   0  0  0  0  0  0  0  0  0  0  0  0
   -7.9410   -0.2396    1.9740 H   0  0  0  0  0  0  0  0  0  0  0  0
   -5.9917   -1.6012    1.5865 H   0  0  0  0  0  0  0  0  0  0  0  0
   -4.0295   -2.0497    0.1871 H   0  0  0  0  0  0  0  0  0  0  0  0
   -3.4290   -0.7566    1.2392 H   0  0  0  0  0  0  0  0  0  0  0  0
   -4.3953   -0.6225   -1.6499 H   0  0  0  0  0  0  0  0  0  0  0  0
   -2.0698    0.5809   -0.0724 H   0  0  0  0  0  0  0  0  0  0  0  0
   -2.3202    0.5456   -1.8793 H   0  0  0  0  0  0  0  0  0  0  0  0
   -2.2927   -2.1430   -1.0481 H   0  0  0  0  0  0  0  0  0  0  0  0
   -0.2205   -3.3689   -1.4199 H   0  0  0  0  0  0  0  0  0  0  0  0
    2.2228   -3.3648   -1.6305 H   0  0  0  0  0  0  0  0  0  0  0  0
    4.2195   -0.5752    0.4499 H   0  0  0  0  0  0  0  0  0  0  0  0
    6.5731   -0.9119   -1.5077 H   0  0  0  0  0  0  0  0  0  0  0  0
    6.4673    1.4155   -0.6427 H   0  0  0  0  0  0  0  0  0  0  0  0
    7.8059    0.4577    0.0392 H   0  0  0  0  0  0  0  0  0  0  0  0
    5.2174    0.7429    1.6462 H   0  0  0  0  0  0  0  0  0  0  0  0
    6.8115    0.0294    2.0871 H   0  0  0  0  0  0  0  0  0  0  0  0
    6.4913    4.1288    2.3680 H   0  0  0  0  0  0  0  0  0  0  0  0
    8.4971   -2.8699    0.6470 H   0  0  0  0  0  0  0  0  0  0  0  0
    2.2658    0.8639   -1.1675 H   0  0  0  0  0  0  0  0  0  0  0  0
   -0.2175    0.8278   -0.9587 H   0  0  0  0  0  0  0  0  0  0  0  0
   -4.0081    2.0566   -0.8569 H   0  0  0  0  0  0  0  0  0  0  0  0
  1  2  1  0
  2  3  2  0
  3  4  1  0
  4  5  2  0
  4  6  1  0
  6  7  2  0
  7  8  1  0
  7  9  1  0
  9 10  1  0
 10 11  1  0
 11 12  1  0
 12 13  1  0
 13 14  1  0
 14 15  2  0
 15 16  1  0
 16 17  2  0
 17 18  1  0
 18 19  2  0
 18 20  1  0
 20 21  1  0
 21 22  1  0
 22 23  1  0
 23 24  1  0
 24 25  2  0
 24 26  1  0
 21 27  1  0
 27 28  2  0
 27 29  1  0
 17 30  1  0
 30 31  2  0
 11 32  1  0
  8  2  1  0
 31 14  1  0
 32  6  1  0
  1 33  1  0
  1 34  1  0
  8 35  1  0
  9 36  1  0
 10 37  1  0
 10 38  1  0
 11 39  1  6
 12 40  1  0
 12 41  1  0
 13 42  1  0
 15 43  1  0
 16 44  1  0
 20 45  1  0
 21 46  1  6
 22 47  1  0
 22 48  1  0
 23 49  1  0
 23 50  1  0
 26 51  1  0
 29 52  1  0
 30 53  1  0
 31 54  1  0
 32 55  1  0
M  END
$$$$

     RDKit          3D

 55 57  0  0  0  0  0  0  0  0999 V2000
    9.9171   -1.2619   -1.0496 N   0  0  0  0  0  0  0  0  0  0  0  0
    8.5274   -1.0013   -0.7750 C   0  0  0  0  0  0  0  0  0  0  0  0
    7.6402   -2.0042   -0.6554 N   0  0  0  0  0  0  0  0  0  0  0  0
    6.3469   -1.7400   -0.3987 C   0  0  0  0  0  0  0  0  0  0  0  0
    5.4869   -2.6681   -0.2810 O   0  0  0  0  0  0  0  0  0  0  0  0
    5.8620   -0.4517   -0.2455 C   0  0  0  0  0  0  0  0  0  0  0  0
    6.8016    0.5596   -0.3744 C   0  0  0  0  0  0  0  0  0  0  0  0
    8.0839    0.2600   -0.6310 N   0  0  0  0  0  0  0  0  0  0  0  0
    6.3174    1.8914   -0.2177 N   0  0  0  0  0  0  0  0  0  0  0  0
    5.0571    2.1279    0.4914 C   0  0  0  0  0  0  0  0  0  0  0  0
    4.0316    1.1898   -0.1116 C   0  0  2  0  0  0  0  0  0  0  0  0
    2.6671    1.3895    0.4504 C   0  0  0  0  0  0  0  0  0  0  0  0
    1.7371    0.4884   -0.1470 N   0  0  0  0  0  0  0  0  0  0  0  0
    0.3495    0.4478    0.2125 C   0  0  0  0  0  0  0  0  0  0  0  0
   -0.1881    1.2598    1.1870 C   0  0  0  0  0  0  0  0  0  0  0  0
   -1.5353    1.1919    1.5039 C   0  0  0  0  0  0  0  0  0  0  0  0
   -2.4010    0.3188    0.8696 C   0  0  0  0  0  0  0  0  0  0  0  0
   -3.8185    0.2875    1.2439 C   0  0  0  0  0  0  0  0  0  0  0  0
   -4.2278    1.0445    2.1599 O   0  0  0  0  0  0  0  0  0  0  0  0
   -4.7767   -0.5506    0.6348 N   0  0  0  0  0  0  0  0  0  0  0  0
   -6.1589   -0.5201    1.0628 C   0  0  1  0  0  0  0  0  0  0  0  0
   -7.1064   -0.0467   -0.0030 C   0  0  0  0  0  0  0  0  0  0  0  0
   -7.1064   -0.9001   -1.2432 C   0  0  0  0  0  0  0  0  0  0  0  0
   -8.0834   -0.3009   -2.1849 C   0  0  0  0  0  0  0  0  0  0  0  0
   -9.3376   -0.4676   -2.0202 O   0  0  0  0  0  0  0  0  0  0  0  0
   -7.6056    0.4434   -3.2483 O   0  0  0  0  0  0  0  0  0  0  0  0
   -6.5674   -1.8295    1.5783 C   0  0  0  0  0  0  0  0  0  0  0  0
   -5.7524   -2.7790    1.5999 O   0  0  0  0  0  0  0  0  0  0  0  0
   -7.8719   -2.0187    2.0479 O   0  0  0  0  0  0  0  0  0  0  0  0
   -1.8635   -0.4938   -0.1055 C   0  0  0  0  0  0  0  0  0  0  0  0
   -0.5007   -0.4212   -0.4222 C   0  0  0  0  0  0  0  0  0  0  0  0
    4.4962   -0.1780    0.0278 N   0  0  0  0  0  0  0  0  0  0  0  0
   10.2288   -2.1660   -1.4645 H   0  0  0  0  0  0  0  0  0  0  0  0
   10.6564   -0.5646   -0.8473 H   0  0  0  0  0  0  0  0  0  0  0  0
    8.7708    1.0403   -0.7232 H   0  0  0  0  0  0  0  0  0  0  0  0
    6.8956    2.6601   -0.6233 H   0  0  0  0  0  0  0  0  0  0  0  0
    5.2167    1.9441    1.5632 H   0  0  0  0  0  0  0  0  0  0  0  0
    4.7508    3.1738    0.3436 H   0  0  0  0  0  0  0  0  0  0  0  0
    3.9830    1.4302   -1.1993 H   0  0  0  0  0  0  0  0  0  0  0  0
    2.3996    2.4579    0.3475 H   0  0  0  0  0  0  0  0  0  0  0  0
    2.6482    1.1849    1.5636 H   0  0  0  0  0  0  0  0  0  0  0  0
    2.0902   -0.1675   -0.8789 H   0  0  0  0  0  0  0  0  0  0  0  0
    0.4714    1.9371    1.6840 H   0  0  0  0  0  0  0  0  0  0  0  0
   -1.9722    1.8315    2.2768 H   0  0  0  0  0  0  0  0  0  0  0  0
   -4.4805   -1.1936   -0.1276 H   0  0  0  0  0  0  0  0  0  0  0  0
   -6.2657    0.2211    1.9066 H   0  0  0  0  0  0  0  0  0  0  0  0
   -6.9574    1.0406   -0.2294 H   0  0  0  0  0  0  0  0  0  0  0  0
   -8.1285   -0.1066    0.4361 H   0  0  0  0  0  0  0  0  0  0  0  0
   -6.1368   -0.9788   -1.7438 H   0  0  0  0  0  0  0  0  0  0  0  0
   -7.5005   -1.9074   -0.9255 H   0  0  0  0  0  0  0  0  0  0  0  0
   -8.2175    1.0881   -3.7349 H   0  0  0  0  0  0  0  0  0  0  0  0
   -8.1370   -2.9631    2.2714 H   0  0  0  0  0  0  0  0  0  0  0  0
   -2.5152   -1.1870   -0.6206 H   0  0  0  0  0  0  0  0  0  0  0  0
   -0.1044   -1.0698   -1.1918 H   0  0  0  0  0  0  0  0  0  0  0  0
    3.8840   -0.9724    0.3183 H   0  0  0  0  0  0  0  0  0  0  0  0
  1  2  1  0
  2  3  2  0
  3  4  1  0
  4  5  2  0
  4  6  1  0
  6  7  2  0
  7  8  1  0
  7  9  1  0
  9 10  1  0
 10 11  1  0
 11 12  1  0
 12 13  1  0
 13 14  1  0
 14 15  2  0
 15 16  1  0
 16 17  2  0
 17 18  1  0
 18 19  2  0
 18 20  1  0
 20 21  1  0
 21 22  1  0
 22 23  1  0
 23 24  1  0
 24 25  2  0
 24 26  1  0
 21 27  1  0
 27 28  2  0
 27 29  1  0
 17 30  1  0
 30 31  2  0
 11 32  1  0
  8  2  1  0
 31 14  1  0
 32  6  1  0
  1 33  1  0
  1 34  1  0
  8 35  1  0
  9 36  1  0
 10 37  1  0
 10 38  1  0
 11 39  1  6
 12 40  1  0
 12 41  1  0
 13 42  1  0
 15 43  1  0
 16 44  1  0
 20 45  1  0
 21 46  1  1
 22 47  1  0
 22 48  1  0
 23 49  1  0
 23 50  1  0
 26 51  1  0
 29 52  1  0
 30 53  1  0
 31 54  1  0
 32 55  1  0
M  END
$$$$

     RDKit          3D

 55 57  0  0  0  0  0  0  0  0999 V2000
    9.6600   -0.8834   -0.1286 N   0  0  0  0  0  0  0  0  0  0  0  0
    8.2867   -0.7056    0.1830 C   0  0  0  0  0  0  0  0  0  0  0  0
    7.8991   -0.3886    1.4344 N   0  0  0  0  0  0  0  0  0  0  0  0
    6.6079   -0.2115    1.7703 C   0  0  0  0  0  0  0  0  0  0  0  0
    6.2722    0.0849    2.9496 O   0  0  0  0  0  0  0  0  0  0  0  0
    5.6317   -0.3526    0.8248 C   0  0  0  0  0  0  0  0  0  0  0  0
    6.0108   -0.6786   -0.4688 C   0  0  0  0  0  0  0  0  0  0  0  0
    7.3171   -0.8420   -0.7398 N   0  0  0  0  0  0  0  0  0  0  0  0
    5.0006   -0.8292   -1.4658 N   0  0  0  0  0  0  0  0  0  0  0  0
    3.6224   -1.0088   -1.1073 C   0  0  0  0  0  0  0  0  0  0  0  0
    3.2197   -0.1441    0.0944 C   0  0  2  0  0  0  0  0  0  0  0  0
    3.0695    1.2611   -0.3870 C   0  0  0  0  0  0  0  0  0  0  0  0
    2.0702    1.4008   -1.4033 N   0  0  0  0  0  0  0  0  0  0  0  0
    0.6937    1.2064   -1.1703 C   0  0  0  0  0  0  0  0  0  0  0  0
    0.1762    1.0714    0.0915 C   0  0  0  0  0  0  0  0  0  0  0  0
   -1.1904    0.8695    0.2464 C   0  0  0  0  0  0  0  0  0  0  0  0
   -2.0654    0.7963   -0.7977 C   0  0  0  0  0  0  0  0  0  0  0  0
   -3.5038    0.5852   -0.6771 C   0  0  0  0  0  0  0  0  0  0  0  0
   -4.2440    0.5448   -1.6994 O   0  0  0  0  0  0  0  0  0  0  0  0
   -4.0887    0.4222    0.5952 N   0  0  0  0  0  0  0  0  0  0  0  0
   -5.5475    0.2088    0.7029 C   0  0  1  0  0  0  0  0  0  0  0  0
   -5.8225   -1.1092    1.3412 C   0  0  0  0  0  0  0  0  0  0  0  0
   -7.2874   -1.3744    1.4718 C   0  0  0  0  0  0  0  0  0  0  0  0
   -7.9836   -1.4142    0.1833 C   0  0  0  0  0  0  0  0  0  0  0  0
   -7.4356   -1.3201   -0.9367 O   0  0  0  0  0  0  0  0  0  0  0  0
   -9.3906   -1.5703    0.1501 O   0  0  0  0  0  0  0  0  0  0  0  0
   -6.1342    1.3753    1.3955 C   0  0  0  0  0  0  0  0  0  0  0  0
   -5.3979    2.3179    1.8429 O   0  0  0  0  0  0  0  0  0  0  0  0
   -7.4750    1.5079    1.5891 O   0  0  0  0  0  0  0  0  0  0  0  0
   -1.5202    0.9366   -2.0790 C   0  0  0  0  0  0  0  0  0  0  0  0
   -0.1793    1.1356   -2.2533 C   0  0  0  0  0  0  0  0  0  0  0  0
    4.2548   -0.1775    1.1219 N   0  0  0  0  0  0  0  0  0  0  0  0
   10.3584   -1.1002    0.6108 H   0  0  0  0  0  0  0  0  0  0  0  0
    9.9512   -0.7912   -1.1180 H   0  0  0  0  0  0  0  0  0  0  0  0
    7.6074   -1.0910   -1.7273 H   0  0  0  0  0  0  0  0  0  0  0  0
    5.3127   -0.8024   -2.4660 H   0  0  0  0  0  0  0  0  0  0  0  0
    3.0023   -0.6869   -1.9664 H   0  0  0  0  0  0  0  0  0  0  0  0
    3.4122   -2.0826   -0.8584 H   0  0  0  0  0  0  0  0  0  0  0  0
    2.3183   -0.6071    0.5199 H   0  0  0  0  0  0  0  0  0  0  0  0
    2.8629    1.9590    0.4702 H   0  0  0  0  0  0  0  0  0  0  0  0
    4.0619    1.5874   -0.7671 H   0  0  0  0  0  0  0  0  0  0  0  0
    2.3884    1.6655   -2.3830 H   0  0  0  0  0  0  0  0  0  0  0  0
    0.8107    1.1269    0.9907 H   0  0  0  0  0  0  0  0  0  0  0  0
   -1.5826    0.7644    1.2522 H   0  0  0  0  0  0  0  0  0  0  0  0
   -3.5505    0.4437    1.4602 H   0  0  0  0  0  0  0  0  0  0  0  0
   -5.9430    0.2186   -0.3229 H   0  0  0  0  0  0  0  0  0  0  0  0
   -5.3046   -1.1762    2.3291 H   0  0  0  0  0  0  0  0  0  0  0  0
   -5.3129   -1.8860    0.7185 H   0  0  0  0  0  0  0  0  0  0  0  0
   -7.7323   -0.6297    2.1484 H   0  0  0  0  0  0  0  0  0  0  0  0
   -7.4470   -2.3565    2.0293 H   0  0  0  0  0  0  0  0  0  0  0  0
   -9.8936   -1.2785   -0.6771 H   0  0  0  0  0  0  0  0  0  0  0  0
   -7.8356    1.9506    2.4304 H   0  0  0  0  0  0  0  0  0  0  0  0
   -2.1861    0.8832   -2.9182 H   0  0  0  0  0  0  0  0  0  0  0  0
    0.2181    1.2418   -3.2659 H   0  0  0  0  0  0  0  0  0  0  0  0
    3.9572   -0.0672    2.1084 H   0  0  0  0  0  0  0  0  0  0  0  0
  1  2  1  0
  2  3  2  0
  3  4  1  0
  4  5  2  0
  4  6  1  0
  6  7  2  0
  7  8  1  0
  7  9  1  0
  9 10  1  0
 10 11  1  0
 11 12  1  0
 12 13  1  0
 13 14  1  0
 14 15  2  0
 15 16  1  0
 16 17  2  0
 17 18  1  0
 18 19  2  0
 18 20  1  0
 20 21  1  0
 21 22  1  0
 22 23  1  0
 23 24  1  0
 24 25  2  0
 24 26  1  0
 21 27  1  0
 27 28  2  0
 27 29  1  0
 17 30  1  0
 30 31  2  0
 11 32  1  0
  8  2  1  0
 31 14  1  0
 32  6  1  0
  1 33  1  0
  1 34  1  0
  8 35  1  0
  9 36  1  0
 10 37  1  0
 10 38  1  0
 11 39  1  1
 12 40  1  0
 12 41  1  0
 13 42  1  0
 15 43  1  0
 16 44  1  0
 20 45  1  0
 21 46  1  6
 22 47  1  0
 22 48  1  0
 23 49  1  0
 23 50  1  0
 26 51  1  0
 29 52  1  0
 30 53  1  0
 31 54  1  0
 32 55  1  0
M  END
$$$$

     RDKit          3D

 55 57  0  0  0  0  0  0  0  0999 V2000
    6.8929   -2.4920    2.3808 N   0  0  0  0  0  0  0  0  0  0  0  0
    6.4327   -1.9380    1.1528 C   0  0  0  0  0  0  0  0  0  0  0  0
    6.5786   -2.6774    0.0236 N   0  0  0  0  0  0  0  0  0  0  0  0
    6.1570   -2.1926   -1.1620 C   0  0  0  0  0  0  0  0  0  0  0  0
    6.2894   -2.8758   -2.2198 O   0  0  0  0  0  0  0  0  0  0  0  0
    5.5747   -0.9462   -1.2455 C   0  0  0  0  0  0  0  0  0  0  0  0
    5.4256   -0.1905   -0.0911 C   0  0  0  0  0  0  0  0  0  0  0  0
    5.8643   -0.7227    1.0678 N   0  0  0  0  0  0  0  0  0  0  0  0
    4.8284    1.1052   -0.1314 N   0  0  0  0  0  0  0  0  0  0  0  0
    4.8166    1.7618   -1.4290 C   0  0  0  0  0  0  0  0  0  0  0  0
    4.2121    0.7654   -2.3997 C   0  0  2  0  0  0  0  0  0  0  0  0
    2.8836    0.3306   -1.8350 C   0  0  0  0  0  0  0  0  0  0  0  0
    2.0415    1.5084   -1.7048 N   0  0  0  0  0  0  0  0  0  0  0  0
    0.7442    1.3508   -1.1864 C   0  0  0  0  0  0  0  0  0  0  0  0
   -0.0706    2.4449   -1.0489 C   0  0  0  0  0  0  0  0  0  0  0  0
   -1.3614    2.3010   -0.5350 C   0  0  0  0  0  0  0  0  0  0  0  0
   -1.8148    1.0341   -0.1627 C   0  0  0  0  0  0  0  0  0  0  0  0
   -3.1481    0.8952    0.3696 C   0  0  0  0  0  0  0  0  0  0  0  0
   -3.8544    1.9306    0.5773 O   0  0  0  0  0  0  0  0  0  0  0  0
   -3.6885   -0.3794    0.6666 N   0  0  0  0  0  0  0  0  0  0  0  0
   -5.0500   -0.4255    1.2046 C   0  0  1  0  0  0  0  0  0  0  0  0
   -5.8690   -1.2648    0.2473 C   0  0  0  0  0  0  0  0  0  0  0  0
   -7.3078   -1.4167    0.6546 C   0  0  0  0  0  0  0  0  0  0  0  0
   -8.0291   -0.1394    0.7299 C   0  0  0  0  0  0  0  0  0  0  0  0
   -7.5270    0.9796    0.4550 O   0  0  0  0  0  0  0  0  0  0  0  0
   -9.3803   -0.0725    1.1286 O   0  0  0  0  0  0  0  0  0  0  0  0
   -4.9965   -1.0129    2.5530 C   0  0  0  0  0  0  0  0  0  0  0  0
   -3.8878   -1.3691    3.0208 O   0  0  0  0  0  0  0  0  0  0  0  0
   -6.0971   -1.2072    3.3636 O   0  0  0  0  0  0  0  0  0  0  0  0
   -0.9965   -0.0442   -0.3040 C   0  0  0  0  0  0  0  0  0  0  0  0
    0.2884    0.1183   -0.8185 C   0  0  0  0  0  0  0  0  0  0  0  0
    5.1122   -0.3845   -2.4656 N   0  0  0  0  0  0  0  0  0  0  0  0
    6.2279   -3.0557    2.9656 H   0  0  0  0  0  0  0  0  0  0  0  0
    7.8739   -2.3290    2.6744 H   0  0  0  0  0  0  0  0  0  0  0  0
    5.7462   -0.1422    1.9342 H   0  0  0  0  0  0  0  0  0  0  0  0
    4.4487    1.4943    0.7372 H   0  0  0  0  0  0  0  0  0  0  0  0
    4.3157    2.7297   -1.4326 H   0  0  0  0  0  0  0  0  0  0  0  0
    5.9022    1.8687   -1.7194 H   0  0  0  0  0  0  0  0  0  0  0  0
    4.0492    1.2098   -3.3921 H   0  0  0  0  0  0  0  0  0  0  0  0
    3.0256   -0.0616   -0.7879 H   0  0  0  0  0  0  0  0  0  0  0  0
    2.3779   -0.4265   -2.4604 H   0  0  0  0  0  0  0  0  0  0  0  0
    2.3811    2.4605   -1.9885 H   0  0  0  0  0  0  0  0  0  0  0  0
    0.2180    3.4515   -1.3176 H   0  0  0  0  0  0  0  0  0  0  0  0
   -2.0246    3.1376   -0.4146 H   0  0  0  0  0  0  0  0  0  0  0  0
   -3.1639   -1.2615    0.5182 H   0  0  0  0  0  0  0  0  0  0  0  0
   -5.4342    0.5835    1.2965 H   0  0  0  0  0  0  0  0  0  0  0  0
   -5.8712   -0.7867   -0.7560 H   0  0  0  0  0  0  0  0  0  0  0  0
   -5.4238   -2.2670    0.1031 H   0  0  0  0  0  0  0  0  0  0  0  0
   -7.7966   -2.0198   -0.1532 H   0  0  0  0  0  0  0  0  0  0  0  0
   -7.3813   -2.0098    1.5938 H   0  0  0  0  0  0  0  0  0  0  0  0
   -9.6663    0.7272    1.6923 H   0  0  0  0  0  0  0  0  0  0  0  0
   -5.9409   -1.1280    4.3783 H   0  0  0  0  0  0  0  0  0  0  0  0
   -1.2824   -1.0312   -0.0383 H   0  0  0  0  0  0  0  0  0  0  0  0
    0.9267   -0.7435   -0.9257 H   0  0  0  0  0  0  0  0  0  0  0  0
    5.4287   -0.8092   -3.3639 H   0  0  0  0  0  0  0  0  0  0  0  0
  1  2  1  0
  2  3  2  0
  3  4  1  0
  4  5  2  0
  4  6  1  0
  6  7  2  0
  7  8  1  0
  7  9  1  0
  9 10  1  0
 10 11  1  0
 11 12  1  0
 12 13  1  0
 13 14  1  0
 14 15  2  0
 15 16  1  0
 16 17  2  0
 17 18  1  0
 18 19  2  0
 18 20  1  0
 20 21  1  0
 21 22  1  0
 22 23  1  0
 23 24  1  0
 24 25  2  0
 24 26  1  0
 21 27  1  0
 27 28  2  0
 27 29  1  0
 17 30  1  0
 30 31  2  0
 11 32  1  0
  8  2  1  0
 31 14  1  0
 32  6  1  0
  1 33  1  0
  1 34  1  0
  8 35  1  0
  9 36  1  0
 10 37  1  0
 10 38  1  0
 11 39  1  6
 12 40  1  0
 12 41  1  0
 13 42  1  0
 15 43  1  0
 16 44  1  0
 20 45  1  0
 21 46  1  1
 22 47  1  0
 22 48  1  0
 23 49  1  0
 23 50  1  0
 26 51  1  0
 29 52  1  0
 30 53  1  0
 31 54  1  0
 32 55  1  0
M  END
$$$$

     RDKit          3D

 55 57  0  0  0  0  0  0  0  0999 V2000
    2.9682   -1.2770    4.5902 N   0  0  0  0  0  0  0  0  0  0  0  0
    2.5007   -2.2849    3.6771 C   0  0  0  0  0  0  0  0  0  0  0  0
    2.0630   -3.4761    4.1460 N   0  0  0  0  0  0  0  0  0  0  0  0
    1.6294   -4.4130    3.3079 C   0  0  0  0  0  0  0  0  0  0  0  0
    1.2070   -5.5488    3.6866 O   0  0  0  0  0  0  0  0  0  0  0  0
    1.6177   -4.1871    1.9405 C   0  0  0  0  0  0  0  0  0  0  0  0
    2.0641   -2.9766    1.4854 C   0  0  0  0  0  0  0  0  0  0  0  0
    2.5060   -2.0260    2.3613 N   0  0  0  0  0  0  0  0  0  0  0  0
    2.0609   -2.7229    0.0858 N   0  0  0  0  0  0  0  0  0  0  0  0
    2.0554   -3.8770   -0.8183 C   0  0  0  0  0  0  0  0  0  0  0  0
    1.0500   -4.8919   -0.4110 C   0  0  2  0  0  0  0  0  0  0  0  0
   -0.3605   -4.6666   -0.8142 C   0  0  0  0  0  0  0  0  0  0  0  0
   -0.9952   -3.4858   -0.3518 N   0  0  0  0  0  0  0  0  0  0  0  0
   -0.8074   -2.1614   -0.8171 C   0  0  0  0  0  0  0  0  0  0  0  0
   -1.2039   -1.0861   -0.0398 C   0  0  0  0  0  0  0  0  0  0  0  0
   -1.0575    0.2100   -0.4821 C   0  0  0  0  0  0  0  0  0  0  0  0
   -0.5170    0.5282   -1.7051 C   0  0  0  0  0  0  0  0  0  0  0  0
   -0.3396    1.8756   -2.2181 C   0  0  0  0  0  0  0  0  0  0  0  0
    0.1499    2.0589   -3.3610 O   0  0  0  0  0  0  0  0  0  0  0  0
   -0.7034    3.0037   -1.4658 N   0  0  0  0  0  0  0  0  0  0  0  0
   -0.5347    4.3430   -1.9574 C   0  0  1  0  0  0  0  0  0  0  0  0
   -1.8410    5.0768   -2.1106 C   0  0  0  0  0  0  0  0  0  0  0  0
   -2.5799    5.1904   -0.7889 C   0  0  0  0  0  0  0  0  0  0  0  0
   -3.8536    5.9202   -1.0109 C   0  0  0  0  0  0  0  0  0  0  0  0
   -4.1604    6.3269   -2.1414 O   0  0  0  0  0  0  0  0  0  0  0  0
   -4.7291    6.1643    0.0376 O   0  0  0  0  0  0  0  0  0  0  0  0
    0.4007    5.1355   -1.1417 C   0  0  0  0  0  0  0  0  0  0  0  0
    0.9347    4.5910   -0.1446 O   0  0  0  0  0  0  0  0  0  0  0  0
    0.7259    6.4530   -1.4133 O   0  0  0  0  0  0  0  0  0  0  0  0
   -0.1213   -0.5723   -2.4790 C   0  0  0  0  0  0  0  0  0  0  0  0
   -0.2622   -1.8682   -2.0497 C   0  0  0  0  0  0  0  0  0  0  0  0
    1.1625   -5.1649    1.0273 N   0  0  0  0  0  0  0  0  0  0  0  0
    2.5003   -0.3272    4.5960 H   0  0  0  0  0  0  0  0  0  0  0  0
    3.7416   -1.4202    5.2507 H   0  0  0  0  0  0  0  0  0  0  0  0
    2.8355   -1.1208    1.9627 H   0  0  0  0  0  0  0  0  0  0  0  0
    2.0624   -1.7439   -0.2428 H   0  0  0  0  0  0  0  0  0  0  0  0
    3.0838   -4.3498   -0.6733 H   0  0  0  0  0  0  0  0  0  0  0  0
    2.0432   -3.5859   -1.8606 H   0  0  0  0  0  0  0  0  0  0  0  0
    1.3544   -5.8728   -0.8946 H   0  0  0  0  0  0  0  0  0  0  0  0
   -0.3787   -4.7467   -1.9460 H   0  0  0  0  0  0  0  0  0  0  0  0
   -0.9321   -5.5850   -0.5009 H   0  0  0  0  0  0  0  0  0  0  0  0
   -1.7023   -3.5968    0.4419 H   0  0  0  0  0  0  0  0  0  0  0  0
   -1.6349   -1.2959    0.9317 H   0  0  0  0  0  0  0  0  0  0  0  0
   -1.3852    1.0404    0.1650 H   0  0  0  0  0  0  0  0  0  0  0  0
   -1.1093    2.8840   -0.5202 H   0  0  0  0  0  0  0  0  0  0  0  0
   -0.0898    4.2730   -2.9770 H   0  0  0  0  0  0  0  0  0  0  0  0
   -2.4629    4.5193   -2.8299 H   0  0  0  0  0  0  0  0  0  0  0  0
   -1.6462    6.0991   -2.4574 H   0  0  0  0  0  0  0  0  0  0  0  0
   -1.9966    5.7938   -0.0639 H   0  0  0  0  0  0  0  0  0  0  0  0
   -2.8461    4.1857   -0.4043 H   0  0  0  0  0  0  0  0  0  0  0  0
   -5.3701    6.9375   -0.0587 H   0  0  0  0  0  0  0  0  0  0  0  0
    1.6484    6.8392   -1.2198 H   0  0  0  0  0  0  0  0  0  0  0  0
    0.3100   -0.3328   -3.4537 H   0  0  0  0  0  0  0  0  0  0  0  0
    0.0504   -2.6744   -2.6923 H   0  0  0  0  0  0  0  0  0  0  0  0
    0.8950   -6.1106    1.3725 H   0  0  0  0  0  0  0  0  0  0  0  0
  1  2  1  0
  2  3  2  0
  3  4  1  0
  4  5  2  0
  4  6  1  0
  6  7  2  0
  7  8  1  0
  7  9  1  0
  9 10  1  0
 10 11  1  0
 11 12  1  0
 12 13  1  0
 13 14  1  0
 14 15  2  0
 15 16  1  0
 16 17  2  0
 17 18  1  0
 18 19  2  0
 18 20  1  0
 20 21  1  0
 21 22  1  0
 22 23  1  0
 23 24  1  0
 24 25  2  0
 24 26  1  0
 21 27  1  0
 27 28  2  0
 27 29  1  0
 17 30  1  0
 30 31  2  0
 11 32  1  0
  8  2  1  0
 31 14  1  0
 32  6  1  0
  1 33  1  0
  1 34  1  0
  8 35  1  0
  9 36  1  0
 10 37  1  0
 10 38  1  0
 11 39  1  6
 12 40  1  0
 12 41  1  0
 13 42  1  0
 15 43  1  0
 16 44  1  0
 20 45  1  0
 21 46  1  6
 22 47  1  0
 22 48  1  0
 23 49  1  0
 23 50  1  0
 26 51  1  0
 29 52  1  0
 30 53  1  0
 31 54  1  0
 32 55  1  0
M  END
$$$$

     RDKit          3D

 55 57  0  0  0  0  0  0  0  0999 V2000
    8.6575    2.6468   -1.5400 N   0  0  0  0  0  0  0  0  0  0  0  0
    7.6788    1.8214   -0.9335 C   0  0  0  0  0  0  0  0  0  0  0  0
    7.3488    2.0203    0.3550 N   0  0  0  0  0  0  0  0  0  0  0  0
    6.4282    1.2435    0.9245 C   0  0  0  0  0  0  0  0  0  0  0  0
    6.1311    1.4402    2.1249 O   0  0  0  0  0  0  0  0  0  0  0  0
    5.8295    0.2543    0.1951 C   0  0  0  0  0  0  0  0  0  0  0  0
    6.1588    0.0409   -1.1248 C   0  0  0  0  0  0  0  0  0  0  0  0
    7.0903    0.8426   -1.6654 N   0  0  0  0  0  0  0  0  0  0  0  0
    5.5145   -0.9873   -1.8263 N   0  0  0  0  0  0  0  0  0  0  0  0
    4.6570   -1.9897   -1.2580 C   0  0  0  0  0  0  0  0  0  0  0  0
    4.3919   -1.8252    0.1892 C   0  0  2  0  0  0  0  0  0  0  0  0
    2.9178   -1.9740    0.5137 C   0  0  0  0  0  0  0  0  0  0  0  0
    2.1199   -0.9863   -0.1835 N   0  0  0  0  0  0  0  0  0  0  0  0
    0.7135   -0.9735    0.0018 C   0  0  0  0  0  0  0  0  0  0  0  0
    0.1061   -1.8807    0.8334 C   0  0  0  0  0  0  0  0  0  0  0  0
   -1.2515   -1.8777    1.0195 C   0  0  0  0  0  0  0  0  0  0  0  0
   -2.0856   -0.9654    0.3839 C   0  0  0  0  0  0  0  0  0  0  0  0
   -3.5248   -0.9807    0.5967 C   0  0  0  0  0  0  0  0  0  0  0  0
   -4.0905   -1.7937    1.3706 O   0  0  0  0  0  0  0  0  0  0  0  0
   -4.3561   -0.0571   -0.0783 N   0  0  0  0  0  0  0  0  0  0  0  0
   -5.8046   -0.0725    0.1355 C   0  0  1  0  0  0  0  0  0  0  0  0
   -6.2856    1.2308    0.6721 C   0  0  0  0  0  0  0  0  0  0  0  0
   -7.7675    1.2711    0.9189 C   0  0  0  0  0  0  0  0  0  0  0  0
   -8.1406    2.6111    1.4806 C   0  0  0  0  0  0  0  0  0  0  0  0
   -9.3119    2.8911    1.7692 O   0  0  0  0  0  0  0  0  0  0  0  0
   -7.1562    3.5357    1.6737 O   0  0  0  0  0  0  0  0  0  0  0  0
   -6.4319   -0.4453   -1.1415 C   0  0  0  0  0  0  0  0  0  0  0  0
   -5.6959   -0.6321   -2.1583 O   0  0  0  0  0  0  0  0  0  0  0  0
   -7.7844   -0.6175   -1.3412 O   0  0  0  0  0  0  0  0  0  0  0  0
   -1.4870   -0.0525   -0.4513 C   0  0  0  0  0  0  0  0  0  0  0  0
   -0.1099   -0.0664   -0.6311 C   0  0  0  0  0  0  0  0  0  0  0  0
    4.8431   -0.5961    0.7627 N   0  0  0  0  0  0  0  0  0  0  0  0
    8.8343    3.5926   -1.1388 H   0  0  0  0  0  0  0  0  0  0  0  0
    9.1871    2.3059   -2.3732 H   0  0  0  0  0  0  0  0  0  0  0  0
    7.3536    0.6939   -2.6704 H   0  0  0  0  0  0  0  0  0  0  0  0
    5.6693   -1.0342   -2.8653 H   0  0  0  0  0  0  0  0  0  0  0  0
    5.1295   -2.9865   -1.4711 H   0  0  0  0  0  0  0  0  0  0  0  0
    3.7169   -1.9912   -1.8692 H   0  0  0  0  0  0  0  0  0  0  0  0
    4.9067   -2.6529    0.7594 H   0  0  0  0  0  0  0  0  0  0  0  0
    2.7268   -1.8292    1.5957 H   0  0  0  0  0  0  0  0  0  0  0  0
    2.5486   -3.0048    0.2817 H   0  0  0  0  0  0  0  0  0  0  0  0
    2.5966   -0.3055   -0.8070 H   0  0  0  0  0  0  0  0  0  0  0  0
    0.7653   -2.5941    1.3296 H   0  0  0  0  0  0  0  0  0  0  0  0
   -1.7227   -2.5944    1.6754 H   0  0  0  0  0  0  0  0  0  0  0  0
   -4.0188    0.6682   -0.7455 H   0  0  0  0  0  0  0  0  0  0  0  0
   -6.0728   -0.8861    0.8704 H   0  0  0  0  0  0  0  0  0  0  0  0
   -5.7048    1.5840    1.5513 H   0  0  0  0  0  0  0  0  0  0  0  0
   -6.0989    2.0346   -0.1040 H   0  0  0  0  0  0  0  0  0  0  0  0
   -8.1211    0.5215    1.6255 H   0  0  0  0  0  0  0  0  0  0  0  0
   -8.3022    1.1667   -0.0715 H   0  0  0  0  0  0  0  0  0  0  0  0
   -7.3145    4.5433    1.7191 H   0  0  0  0  0  0  0  0  0  0  0  0
   -8.1433   -1.3621   -1.9439 H   0  0  0  0  0  0  0  0  0  0  0  0
   -2.0375    0.6967   -0.9917 H   0  0  0  0  0  0  0  0  0  0  0  0
    0.3787    0.6507   -1.2898 H   0  0  0  0  0  0  0  0  0  0  0  0
    4.4201   -0.2933    1.6679 H   0  0  0  0  0  0  0  0  0  0  0  0
  1  2  1  0
  2  3  2  0
  3  4  1  0
  4  5  2  0
  4  6  1  0
  6  7  2  0
  7  8  1  0
  7  9  1  0
  9 10  1  0
 10 11  1  0
 11 12  1  0
 12 13  1  0
 13 14  1  0
 14 15  2  0
 15 16  1  0
 16 17  2  0
 17 18  1  0
 18 19  2  0
 18 20  1  0
 20 21  1  0
 21 22  1  0
 22 23  1  0
 23 24  1  0
 24 25  2  0
 24 26  1  0
 21 27  1  0
 27 28  2  0
 27 29  1  0
 17 30  1  0
 30 31  2  0
 11 32  1  0
  8  2  1  0
 31 14  1  0
 32  6  1  0
  1 33  1  0
  1 34  1  0
  8 35  1  0
  9 36  1  0
 10 37  1  0
 10 38  1  0
 11 39  1  1
 12 40  1  0
 12 41  1  0
 13 42  1  0
 15 43  1  0
 16 44  1  0
 20 45  1  0
 21 46  1  1
 22 47  1  0
 22 48  1  0
 23 49  1  0
 23 50  1  0
 26 51  1  0
 29 52  1  0
 30 53  1  0
 31 54  1  0
 32 55  1  0
M  END
$$$$

     RDKit          3D

 55 57  0  0  0  0  0  0  0  0999 V2000
   -6.1851    0.8623    3.9933 N   0  0  0  0  0  0  0  0  0  0  0  0
   -5.7401    0.8360    2.6395 C   0  0  0  0  0  0  0  0  0  0  0  0
   -5.9437    1.8686    1.7995 N   0  0  0  0  0  0  0  0  0  0  0  0
   -5.5210    1.8517    0.5182 C   0  0  0  0  0  0  0  0  0  0  0  0
   -5.7093    2.8161   -0.2721 O   0  0  0  0  0  0  0  0  0  0  0  0
   -4.8457    0.7493    0.0009 C   0  0  0  0  0  0  0  0  0  0  0  0
   -4.6489   -0.2951    0.8781 C   0  0  0  0  0  0  0  0  0  0  0  0
   -5.0895   -0.2376    2.1556 N   0  0  0  0  0  0  0  0  0  0  0  0
   -3.9620   -1.4190    0.3676 N   0  0  0  0  0  0  0  0  0  0  0  0
   -3.0356   -1.2050   -0.7540 C   0  0  0  0  0  0  0  0  0  0  0  0
   -3.7997   -0.5278   -1.8389 C   0  0  2  0  0  0  0  0  0  0  0  0
   -3.0291   -0.2802   -3.1155 C   0  0  0  0  0  0  0  0  0  0  0  0
   -1.8942    0.5528   -2.8767 N   0  0  0  0  0  0  0  0  0  0  0  0
   -0.6808    0.1470   -2.2863 C   0  0  0  0  0  0  0  0  0  0  0  0
    0.1465    1.0813   -1.6983 C   0  0  0  0  0  0  0  0  0  0  0  0
    1.3527    0.7120   -1.1430 C   0  0  0  0  0  0  0  0  0  0  0  0
    1.7931   -0.5982   -1.1459 C   0  0  0  0  0  0  0  0  0  0  0  0
    3.0690   -0.9518   -0.5331 C   0  0  0  0  0  0  0  0  0  0  0  0
    3.8584   -1.7444   -1.0824 O   0  0  0  0  0  0  0  0  0  0  0  0
    3.3721   -0.3527    0.7236 N   0  0  0  0  0  0  0  0  0  0  0  0
    4.6190   -0.6384    1.4182 C   0  0  1  0  0  0  0  0  0  0  0  0
    5.2712    0.6087    1.8953 C   0  0  0  0  0  0  0  0  0  0  0  0
    5.6021    1.5339    0.7734 C   0  0  0  0  0  0  0  0  0  0  0  0
    6.5398    1.0302   -0.2334 C   0  0  0  0  0  0  0  0  0  0  0  0
    6.4023   -0.0265   -0.8805 O   0  0  0  0  0  0  0  0  0  0  0  0
    7.6999    1.7839   -0.5079 O   0  0  0  0  0  0  0  0  0  0  0  0
    4.3536   -1.5859    2.5555 C   0  0  0  0  0  0  0  0  0  0  0  0
    3.2023   -2.0124    2.7721 O   0  0  0  0  0  0  0  0  0  0  0  0
    5.3837   -1.9981    3.3789 O   0  0  0  0  0  0  0  0  0  0  0  0
    0.9689   -1.5287   -1.7325 C   0  0  0  0  0  0  0  0  0  0  0  0
   -0.2419   -1.1519   -2.2884 C   0  0  0  0  0  0  0  0  0  0  0  0
   -4.3833    0.6816   -1.3315 N   0  0  0  0  0  0  0  0  0  0  0  0
   -5.5162    0.6932    4.7715 H   0  0  0  0  0  0  0  0  0  0  0  0
   -7.1761    1.0485    4.2524 H   0  0  0  0  0  0  0  0  0  0  0  0
   -4.9125   -1.0602    2.7742 H   0  0  0  0  0  0  0  0  0  0  0  0
   -4.1072   -2.3570    0.7752 H   0  0  0  0  0  0  0  0  0  0  0  0
   -2.5958   -2.1783   -1.0651 H   0  0  0  0  0  0  0  0  0  0  0  0
   -2.2645   -0.4994   -0.3692 H   0  0  0  0  0  0  0  0  0  0  0  0
   -4.6723   -1.2115   -2.0659 H   0  0  0  0  0  0  0  0  0  0  0  0
   -2.7725   -1.2370   -3.6229 H   0  0  0  0  0  0  0  0  0  0  0  0
   -3.7205    0.2337   -3.8080 H   0  0  0  0  0  0  0  0  0  0  0  0
   -1.9898    1.5808   -3.1775 H   0  0  0  0  0  0  0  0  0  0  0  0
   -0.1839    2.1095   -1.6878 H   0  0  0  0  0  0  0  0  0  0  0  0
    1.9821    1.4566   -0.6888 H   0  0  0  0  0  0  0  0  0  0  0  0
    2.6676    0.3095    1.1470 H   0  0  0  0  0  0  0  0  0  0  0  0
    5.2901   -1.1793    0.7283 H   0  0  0  0  0  0  0  0  0  0  0  0
    4.6967    1.1176    2.7054 H   0  0  0  0  0  0  0  0  0  0  0  0
    6.2646    0.2948    2.3412 H   0  0  0  0  0  0  0  0  0  0  0  0
    4.6761    1.8369    0.1960 H   0  0  0  0  0  0  0  0  0  0  0  0
    5.9707    2.5118    1.2015 H   0  0  0  0  0  0  0  0  0  0  0  0
    8.1979    1.6808   -1.3963 H   0  0  0  0  0  0  0  0  0  0  0  0
    5.2817   -2.7655    4.0489 H   0  0  0  0  0  0  0  0  0  0  0  0
    1.2913   -2.5662   -1.7486 H   0  0  0  0  0  0  0  0  0  0  0  0
   -0.8303   -1.9378   -2.7304 H   0  0  0  0  0  0  0  0  0  0  0  0
   -4.5018    1.5569   -1.8889 H   0  0  0  0  0  0  0  0  0  0  0  0
  1  2  1  0
  2  3  2  0
  3  4  1  0
  4  5  2  0
  4  6  1  0
  6  7  2  0
  7  8  1  0
  7  9  1  0
  9 10  1  0
 10 11  1  0
 11 12  1  0
 12 13  1  0
 13 14  1  0
 14 15  2  0
 15 16  1  0
 16 17  2  0
 17 18  1  0
 18 19  2  0
 18 20  1  0
 20 21  1  0
 21 22  1  0
 22 23  1  0
 23 24  1  0
 24 25  2  0
 24 26  1  0
 21 27  1  0
 27 28  2  0
 27 29  1  0
 17 30  1  0
 30 31  2  0
 11 32  1  0
  8  2  1  0
 31 14  1  0
 32  6  1  0
  1 33  1  0
  1 34  1  0
  8 35  1  0
  9 36  1  0
 10 37  1  0
 10 38  1  0
 11 39  1  6
 12 40  1  0
 12 41  1  0
 13 42  1  0
 15 43  1  0
 16 44  1  0
 20 45  1  0
 21 46  1  6
 22 47  1  0
 22 48  1  0
 23 49  1  0
 23 50  1  0
 26 51  1  0
 29 52  1  0
 30 53  1  0
 31 54  1  0
 32 55  1  0
M  END
$$$$

     RDKit          3D

 55 57  0  0  0  0  0  0  0  0999 V2000
   -8.4530   -1.3780   -2.5527 N   0  0  0  0  0  0  0  0  0  0  0  0
   -7.5023   -1.1798   -1.5116 C   0  0  0  0  0  0  0  0  0  0  0  0
   -6.9573   -2.2698   -0.9120 N   0  0  0  0  0  0  0  0  0  0  0  0
   -6.0665   -2.1602    0.0635 C   0  0  0  0  0  0  0  0  0  0  0  0
   -5.5550   -3.1676    0.6261 O   0  0  0  0  0  0  0  0  0  0  0  0
   -5.6863   -0.8979    0.4770 C   0  0  0  0  0  0  0  0  0  0  0  0
   -6.2417    0.2021   -0.1340 C   0  0  0  0  0  0  0  0  0  0  0  0
   -7.1463    0.0443   -1.1245 N   0  0  0  0  0  0  0  0  0  0  0  0
   -5.8310    1.4844    0.3116 N   0  0  0  0  0  0  0  0  0  0  0  0
   -4.6241    1.7098    1.0633 C   0  0  0  0  0  0  0  0  0  0  0  0
   -4.2906    0.5540    1.9734 C   0  0  2  0  0  0  0  0  0  0  0  0
   -2.7992    0.5103    2.1146 C   0  0  0  0  0  0  0  0  0  0  0  0
   -2.2057    0.3198    0.8219 N   0  0  0  0  0  0  0  0  0  0  0  0
   -0.8006    0.2590    0.6817 C   0  0  0  0  0  0  0  0  0  0  0  0
   -0.1769    0.0653   -0.5320 C   0  0  0  0  0  0  0  0  0  0  0  0
    1.2119    0.0160   -0.6180 C   0  0  0  0  0  0  0  0  0  0  0  0
    2.0085    0.1576    0.4953 C   0  0  0  0  0  0  0  0  0  0  0  0
    3.4857    0.1043    0.3918 C   0  0  0  0  0  0  0  0  0  0  0  0
    4.1355    0.3073    1.4441 O   0  0  0  0  0  0  0  0  0  0  0  0
    4.1707   -0.1594   -0.8150 N   0  0  0  0  0  0  0  0  0  0  0  0
    5.6278   -0.1931   -0.7980 C   0  0  1  0  0  0  0  0  0  0  0  0
    6.2239    1.1514   -0.6771 C   0  0  0  0  0  0  0  0  0  0  0  0
    7.6981    1.2578   -0.6454 C   0  0  0  0  0  0  0  0  0  0  0  0
    8.3825    0.7583   -1.8354 C   0  0  0  0  0  0  0  0  0  0  0  0
    9.6496    0.7166   -1.8611 O   0  0  0  0  0  0  0  0  0  0  0  0
    7.6571    0.3308   -2.9364 O   0  0  0  0  0  0  0  0  0  0  0  0
    6.0631   -1.1853    0.2004 C   0  0  0  0  0  0  0  0  0  0  0  0
    5.3149   -1.9095    0.8986 O   0  0  0  0  0  0  0  0  0  0  0  0
    7.4302   -1.3429    0.3959 O   0  0  0  0  0  0  0  0  0  0  0  0
    1.3996    0.3508    1.7089 C   0  0  0  0  0  0  0  0  0  0  0  0
    0.0331    0.3971    1.7790 C   0  0  0  0  0  0  0  0  0  0  0  0
   -4.7475   -0.7136    1.5047 N   0  0  0  0  0  0  0  0  0  0  0  0
   -9.4144   -1.7456   -2.3472 H   0  0  0  0  0  0  0  0  0  0  0  0
   -8.1807   -1.1537   -3.5173 H   0  0  0  0  0  0  0  0  0  0  0  0
   -7.5516    0.8959   -1.5703 H   0  0  0  0  0  0  0  0  0  0  0  0
   -6.4297    2.2982    0.0845 H   0  0  0  0  0  0  0  0  0  0  0  0
   -4.7580    2.6145    1.7047 H   0  0  0  0  0  0  0  0  0  0  0  0
   -3.8196    1.9527    0.3506 H   0  0  0  0  0  0  0  0  0  0  0  0
   -4.7166    0.7292    2.9934 H   0  0  0  0  0  0  0  0  0  0  0  0
   -2.4581   -0.2396    2.8601 H   0  0  0  0  0  0  0  0  0  0  0  0
   -2.4756    1.5223    2.4886 H   0  0  0  0  0  0  0  0  0  0  0  0
   -2.8012    0.2260   -0.0128 H   0  0  0  0  0  0  0  0  0  0  0  0
   -0.7952   -0.0491   -1.4274 H   0  0  0  0  0  0  0  0  0  0  0  0
    1.6509   -0.1408   -1.6153 H   0  0  0  0  0  0  0  0  0  0  0  0
    3.6340   -0.3272   -1.7036 H   0  0  0  0  0  0  0  0  0  0  0  0
    5.9336   -0.6485   -1.7926 H   0  0  0  0  0  0  0  0  0  0  0  0
    5.7983    1.8537   -1.4336 H   0  0  0  0  0  0  0  0  0  0  0  0
    5.8533    1.5804    0.3043 H   0  0  0  0  0  0  0  0  0  0  0  0
    8.1389    0.8751    0.3089 H   0  0  0  0  0  0  0  0  0  0  0  0
    7.9327    2.3661   -0.5972 H   0  0  0  0  0  0  0  0  0  0  0  0
    8.0677   -0.3646   -3.5792 H   0  0  0  0  0  0  0  0  0  0  0  0
    7.8069   -1.8651    1.1945 H   0  0  0  0  0  0  0  0  0  0  0  0
    2.0029    0.4664    2.6081 H   0  0  0  0  0  0  0  0  0  0  0  0
   -0.4702    0.5509    2.7426 H   0  0  0  0  0  0  0  0  0  0  0  0
   -4.3563   -1.5691    1.9577 H   0  0  0  0  0  0  0  0  0  0  0  0
  1  2  1  0
  2  3  2  0
  3  4  1  0
  4  5  2  0
  4  6  1  0
  6  7  2  0
  7  8  1  0
  7  9  1  0
  9 10  1  0
 10 11  1  0
 11 12  1  0
 12 13  1  0
 13 14  1  0
 14 15  2  0
 15 16  1  0
 16 17  2  0
 17 18  1  0
 18 19  2  0
 18 20  1  0
 20 21  1  0
 21 22  1  0
 22 23  1  0
 23 24  1  0
 24 25  2  0
 24 26  1  0
 21 27  1  0
 27 28  2  0
 27 29  1  0
 17 30  1  0
 30 31  2  0
 11 32  1  0
  8  2  1  0
 31 14  1  0
 32  6  1  0
  1 33  1  0
  1 34  1  0
  8 35  1  0
  9 36  1  0
 10 37  1  0
 10 38  1  0
 11 39  1  1
 12 40  1  0
 12 41  1  0
 13 42  1  0
 15 43  1  0
 16 44  1  0
 20 45  1  0
 21 46  1  6
 22 47  1  0
 22 48  1  0
 23 49  1  0
 23 50  1  0
 26 51  1  0
 29 52  1  0
 30 53  1  0
 31 54  1  0
 32 55  1  0
M  END
$$$$

     RDKit          3D

 55 57  0  0  0  0  0  0  0  0999 V2000
   -9.6996    1.1726    1.8256 N   0  0  0  0  0  0  0  0  0  0  0  0
   -8.3383    0.9609    1.4701 C   0  0  0  0  0  0  0  0  0  0  0  0
   -7.3422    1.0264    2.3829 N   0  0  0  0  0  0  0  0  0  0  0  0
   -6.0584    0.8237    2.0315 C   0  0  0  0  0  0  0  0  0  0  0  0
   -5.1152    0.8823    2.8772 O   0  0  0  0  0  0  0  0  0  0  0  0
   -5.6871    0.5404    0.7339 C   0  0  0  0  0  0  0  0  0  0  0  0
   -6.7073    0.4750   -0.1917 C   0  0  0  0  0  0  0  0  0  0  0  0
   -7.9848    0.6847    0.2006 N   0  0  0  0  0  0  0  0  0  0  0  0
   -6.3591    0.1858   -1.5332 N   0  0  0  0  0  0  0  0  0  0  0  0
   -5.0521   -0.1982   -1.9746 C   0  0  0  0  0  0  0  0  0  0  0  0
   -3.9639    0.3597   -1.1020 C   0  0  2  0  0  0  0  0  0  0  0  0
   -2.6431   -0.2953   -1.2970 C   0  0  0  0  0  0  0  0  0  0  0  0
   -1.6795    0.3224   -0.4080 N   0  0  0  0  0  0  0  0  0  0  0  0
   -0.3207   -0.1149   -0.3863 C   0  0  0  0  0  0  0  0  0  0  0  0
    0.5957    0.4680    0.4559 C   0  0  0  0  0  0  0  0  0  0  0  0
    1.9154    0.0106    0.4461 C   0  0  0  0  0  0  0  0  0  0  0  0
    2.2636   -1.0019   -0.3975 C   0  0  0  0  0  0  0  0  0  0  0  0
    3.6277   -1.4862   -0.4217 C   0  0  0  0  0  0  0  0  0  0  0  0
    3.9008   -2.4963   -1.1663 O   0  0  0  0  0  0  0  0  0  0  0  0
    4.6682   -0.8997    0.3337 N   0  0  0  0  0  0  0  0  0  0  0  0
    6.0201   -1.4278    0.2711 C   0  0  1  0  0  0  0  0  0  0  0  0
    6.9888   -0.3676   -0.2131 C   0  0  0  0  0  0  0  0  0  0  0  0
    7.0179    0.8268    0.6855 C   0  0  0  0  0  0  0  0  0  0  0  0
    7.9886    1.8019    0.1317 C   0  0  0  0  0  0  0  0  0  0  0  0
    8.6324    1.5784   -0.9195 O   0  0  0  0  0  0  0  0  0  0  0  0
    8.2301    3.0261    0.7651 O   0  0  0  0  0  0  0  0  0  0  0  0
    6.4281   -1.8330    1.6316 C   0  0  0  0  0  0  0  0  0  0  0  0
    5.6777   -1.7108    2.6262 O   0  0  0  0  0  0  0  0  0  0  0  0
    7.6926   -2.3695    1.8110 O   0  0  0  0  0  0  0  0  0  0  0  0
    1.3428   -1.6038   -1.2590 C   0  0  0  0  0  0  0  0  0  0  0  0
    0.0504   -1.1407   -1.2350 C   0  0  0  0  0  0  0  0  0  0  0  0
   -4.3482    0.3191    0.3142 N   0  0  0  0  0  0  0  0  0  0  0  0
  -10.4117    0.4394    1.6403 H   0  0  0  0  0  0  0  0  0  0  0  0
  -10.0175    2.0544    2.2748 H   0  0  0  0  0  0  0  0  0  0  0  0
   -8.7564    0.6338   -0.5074 H   0  0  0  0  0  0  0  0  0  0  0  0
   -7.1308    0.2634   -2.2488 H   0  0  0  0  0  0  0  0  0  0  0  0
   -4.9137    0.1773   -3.0106 H   0  0  0  0  0  0  0  0  0  0  0  0
   -4.9829   -1.3208   -2.0579 H   0  0  0  0  0  0  0  0  0  0  0  0
   -3.8540    1.4372   -1.3701 H   0  0  0  0  0  0  0  0  0  0  0  0
   -2.2957   -0.0465   -2.3419 H   0  0  0  0  0  0  0  0  0  0  0  0
   -2.6699   -1.3918   -1.1469 H   0  0  0  0  0  0  0  0  0  0  0  0
   -1.9609    1.1115    0.2452 H   0  0  0  0  0  0  0  0  0  0  0  0
    0.3140    1.2645    1.1169 H   0  0  0  0  0  0  0  0  0  0  0  0
    2.5862    0.5102    1.1330 H   0  0  0  0  0  0  0  0  0  0  0  0
    4.4582   -0.0839    0.9359 H   0  0  0  0  0  0  0  0  0  0  0  0
    6.0238   -2.2806   -0.4181 H   0  0  0  0  0  0  0  0  0  0  0  0
    6.6556   -0.0194   -1.2192 H   0  0  0  0  0  0  0  0  0  0  0  0
    8.0104   -0.7811   -0.3203 H   0  0  0  0  0  0  0  0  0  0  0  0
    7.3628    0.5494    1.7192 H   0  0  0  0  0  0  0  0  0  0  0  0
    6.0450    1.3132    0.7749 H   0  0  0  0  0  0  0  0  0  0  0  0
    8.3402    3.8762    0.2105 H   0  0  0  0  0  0  0  0  0  0  0  0
    8.1435   -2.3437    2.7265 H   0  0  0  0  0  0  0  0  0  0  0  0
    1.6383   -2.4124   -1.9269 H   0  0  0  0  0  0  0  0  0  0  0  0
   -0.6759   -1.5948   -1.8951 H   0  0  0  0  0  0  0  0  0  0  0  0
   -3.6502    0.1258    1.0665 H   0  0  0  0  0  0  0  0  0  0  0  0
  1  2  1  0
  2  3  2  0
  3  4  1  0
  4  5  2  0
  4  6  1  0
  6  7  2  0
  7  8  1  0
  7  9  1  0
  9 10  1  0
 10 11  1  0
 11 12  1  0
 12 13  1  0
 13 14  1  0
 14 15  2  0
 15 16  1  0
 16 17  2  0
 17 18  1  0
 18 19  2  0
 18 20  1  0
 20 21  1  0
 21 22  1  0
 22 23  1  0
 23 24  1  0
 24 25  2  0
 24 26  1  0
 21 27  1  0
 27 28  2  0
 27 29  1  0
 17 30  1  0
 30 31  2  0
 11 32  1  0
  8  2  1  0
 31 14  1  0
 32  6  1  0
  1 33  1  0
  1 34  1  0
  8 35  1  0
  9 36  1  0
 10 37  1  0
 10 38  1  0
 11 39  1  6
 12 40  1  0
 12 41  1  0
 13 42  1  0
 15 43  1  0
 16 44  1  0
 20 45  1  0
 21 46  1  6
 22 47  1  0
 22 48  1  0
 23 49  1  0
 23 50  1  0
 26 51  1  0
 29 52  1  0
 30 53  1  0
 31 54  1  0
 32 55  1  0
M  END
$$$$

     RDKit          3D

 55 57  0  0  0  0  0  0  0  0999 V2000
    9.1476    0.2456   -1.4656 N   0  0  0  0  0  0  0  0  0  0  0  0
    7.7488   -0.0117   -1.4224 C   0  0  0  0  0  0  0  0  0  0  0  0
    7.2659   -1.2177   -1.7576 N   0  0  0  0  0  0  0  0  0  0  0  0
    5.9449   -1.4823   -1.7236 C   0  0  0  0  0  0  0  0  0  0  0  0
    5.4850   -2.6054   -2.0349 O   0  0  0  0  0  0  0  0  0  0  0  0
    5.0894   -0.4973   -1.3392 C   0  0  0  0  0  0  0  0  0  0  0  0
    5.5901    0.7341   -0.9977 C   0  0  0  0  0  0  0  0  0  0  0  0
    6.9325    0.9776   -1.0401 N   0  0  0  0  0  0  0  0  0  0  0  0
    4.6842    1.7531   -0.5982 N   0  0  0  0  0  0  0  0  0  0  0  0
    3.2627    1.5873   -0.4623 C   0  0  0  0  0  0  0  0  0  0  0  0
    2.8292    0.1343   -0.4709 C   0  0  2  0  0  0  0  0  0  0  0  0
    2.9620   -0.3461    0.9634 C   0  0  0  0  0  0  0  0  0  0  0  0
    2.1269    0.4243    1.8220 N   0  0  0  0  0  0  0  0  0  0  0  0
    0.7105    0.3403    1.7336 C   0  0  0  0  0  0  0  0  0  0  0  0
    0.0623   -0.6267    1.0075 C   0  0  0  0  0  0  0  0  0  0  0  0
   -1.3350   -0.6908    0.9170 C   0  0  0  0  0  0  0  0  0  0  0  0
   -2.1266    0.2253    1.5617 C   0  0  0  0  0  0  0  0  0  0  0  0
   -3.5834    0.2143    1.5074 C   0  0  0  0  0  0  0  0  0  0  0  0
   -4.2605    1.0986    2.1336 O   0  0  0  0  0  0  0  0  0  0  0  0
   -4.2909   -0.7544    0.7755 N   0  0  0  0  0  0  0  0  0  0  0  0
   -5.7538   -0.7086    0.7621 C   0  0  1  0  0  0  0  0  0  0  0  0
   -6.2248   -0.5909   -0.6680 C   0  0  0  0  0  0  0  0  0  0  0  0
   -5.6910    0.6657   -1.3269 C   0  0  0  0  0  0  0  0  0  0  0  0
   -6.1572    0.7762   -2.7324 C   0  0  0  0  0  0  0  0  0  0  0  0
   -5.7948    1.7721   -3.4091 O   0  0  0  0  0  0  0  0  0  0  0  0
   -6.9693   -0.1587   -3.3373 O   0  0  0  0  0  0  0  0  0  0  0  0
   -6.2889   -2.0034    1.2819 C   0  0  0  0  0  0  0  0  0  0  0  0
   -5.5051   -2.9162    1.6443 O   0  0  0  0  0  0  0  0  0  0  0  0
   -7.6494   -2.2450    1.3832 O   0  0  0  0  0  0  0  0  0  0  0  0
   -1.4720    1.2108    2.3022 C   0  0  0  0  0  0  0  0  0  0  0  0
   -0.1009    1.2734    2.3904 C   0  0  0  0  0  0  0  0  0  0  0  0
    3.6866   -0.6947   -1.2769 N   0  0  0  0  0  0  0  0  0  0  0  0
    9.7447   -0.3817   -2.0484 H   0  0  0  0  0  0  0  0  0  0  0  0
    9.5601    1.0239   -0.9407 H   0  0  0  0  0  0  0  0  0  0  0  0
    7.2938    1.9199   -0.7768 H   0  0  0  0  0  0  0  0  0  0  0  0
    5.0837    2.6897   -0.3889 H   0  0  0  0  0  0  0  0  0  0  0  0
    2.9468    2.0351    0.4972 H   0  0  0  0  0  0  0  0  0  0  0  0
    2.7511    2.1165   -1.2948 H   0  0  0  0  0  0  0  0  0  0  0  0
    1.8196    0.1002   -0.8728 H   0  0  0  0  0  0  0  0  0  0  0  0
    2.7483   -1.4419    1.0358 H   0  0  0  0  0  0  0  0  0  0  0  0
    4.0390   -0.2540    1.2377 H   0  0  0  0  0  0  0  0  0  0  0  0
    2.5980    1.0585    2.5255 H   0  0  0  0  0  0  0  0  0  0  0  0
    0.6250   -1.3860    0.4836 H   0  0  0  0  0  0  0  0  0  0  0  0
   -1.8051   -1.4712    0.3321 H   0  0  0  0  0  0  0  0  0  0  0  0
   -3.8125   -1.5214    0.2292 H   0  0  0  0  0  0  0  0  0  0  0  0
   -6.1013    0.1442    1.3772 H   0  0  0  0  0  0  0  0  0  0  0  0
   -5.8864   -1.5023   -1.1940 H   0  0  0  0  0  0  0  0  0  0  0  0
   -7.3319   -0.5532   -0.7047 H   0  0  0  0  0  0  0  0  0  0  0  0
   -5.9843    1.5725   -0.7993 H   0  0  0  0  0  0  0  0  0  0  0  0
   -4.5746    0.5281   -1.3740 H   0  0  0  0  0  0  0  0  0  0  0  0
   -7.5667    0.0983   -4.1219 H   0  0  0  0  0  0  0  0  0  0  0  0
   -8.0350   -3.1825    1.4922 H   0  0  0  0  0  0  0  0  0  0  0  0
   -2.1038    1.9464    2.8203 H   0  0  0  0  0  0  0  0  0  0  0  0
    0.4094    2.0436    2.9692 H   0  0  0  0  0  0  0  0  0  0  0  0
    3.2570   -1.4657   -1.8317 H   0  0  0  0  0  0  0  0  0  0  0  0
  1  2  1  0
  2  3  2  0
  3  4  1  0
  4  5  2  0
  4  6  1  0
  6  7  2  0
  7  8  1  0
  7  9  1  0
  9 10  1  0
 10 11  1  0
 11 12  1  0
 12 13  1  0
 13 14  1  0
 14 15  2  0
 15 16  1  0
 16 17  2  0
 17 18  1  0
 18 19  2  0
 18 20  1  0
 20 21  1  0
 21 22  1  0
 22 23  1  0
 23 24  1  0
 24 25  2  0
 24 26  1  0
 21 27  1  0
 27 28  2  0
 27 29  1  0
 17 30  1  0
 30 31  2  0
 11 32  1  0
  8  2  1  0
 31 14  1  0
 32  6  1  0
  1 33  1  0
  1 34  1  0
  8 35  1  0
  9 36  1  0
 10 37  1  0
 10 38  1  0
 11 39  1  6
 12 40  1  0
 12 41  1  0
 13 42  1  0
 15 43  1  0
 16 44  1  0
 20 45  1  0
 21 46  1  1
 22 47  1  0
 22 48  1  0
 23 49  1  0
 23 50  1  0
 26 51  1  0
 29 52  1  0
 30 53  1  0
 31 54  1  0
 32 55  1  0
M  END
$$$$

     RDKit          3D

 55 57  0  0  0  0  0  0  0  0999 V2000
   10.3469   -0.5659   -0.1709 N   0  0  0  0  0  0  0  0  0  0  0  0
    8.9519   -0.6707   -0.3942 C   0  0  0  0  0  0  0  0  0  0  0  0
    8.4501   -1.2407   -1.5202 N   0  0  0  0  0  0  0  0  0  0  0  0
    7.1152   -1.3042   -1.6615 C   0  0  0  0  0  0  0  0  0  0  0  0
    6.5880   -1.8298   -2.7007 O   0  0  0  0  0  0  0  0  0  0  0  0
    6.2355   -0.8229   -0.7270 C   0  0  0  0  0  0  0  0  0  0  0  0
    6.7878   -0.2488    0.4079 C   0  0  0  0  0  0  0  0  0  0  0  0
    8.1227   -0.1792    0.5613 N   0  0  0  0  0  0  0  0  0  0  0  0
    5.9464    0.2747    1.4268 N   0  0  0  0  0  0  0  0  0  0  0  0
    4.5403   -0.0654    1.4186 C   0  0  0  0  0  0  0  0  0  0  0  0
    4.0473    0.0385   -0.0028 C   0  0  2  0  0  0  0  0  0  0  0  0
    2.5795   -0.1864   -0.1193 C   0  0  0  0  0  0  0  0  0  0  0  0
    1.8757    0.7967    0.6615 N   0  0  0  0  0  0  0  0  0  0  0  0
    0.4340    0.7972    0.7194 C   0  0  0  0  0  0  0  0  0  0  0  0
   -0.2587    1.7268    1.4593 C   0  0  0  0  0  0  0  0  0  0  0  0
   -1.6372    1.7142    1.5045 C   0  0  0  0  0  0  0  0  0  0  0  0
   -2.3939    0.7697    0.8110 C   0  0  0  0  0  0  0  0  0  0  0  0
   -3.8497    0.7788    0.8761 C   0  0  0  0  0  0  0  0  0  0  0  0
   -4.3906    1.6762    1.5868 O   0  0  0  0  0  0  0  0  0  0  0  0
   -4.6810   -0.1474    0.1978 N   0  0  0  0  0  0  0  0  0  0  0  0
   -6.1444   -0.0923    0.2986 C   0  0  1  0  0  0  0  0  0  0  0  0
   -6.7173    0.2330   -1.0522 C   0  0  0  0  0  0  0  0  0  0  0  0
   -8.2010    0.3262   -1.1111 C   0  0  0  0  0  0  0  0  0  0  0  0
   -8.6163    0.6594   -2.4904 C   0  0  0  0  0  0  0  0  0  0  0  0
   -9.8216    0.7930   -2.7960 O   0  0  0  0  0  0  0  0  0  0  0  0
   -7.6558    0.8271   -3.4638 O   0  0  0  0  0  0  0  0  0  0  0  0
   -6.6744   -1.3251    0.9065 C   0  0  0  0  0  0  0  0  0  0  0  0
   -5.8889   -2.2495    1.2399 O   0  0  0  0  0  0  0  0  0  0  0  0
   -8.0230   -1.5200    1.1346 O   0  0  0  0  0  0  0  0  0  0  0  0
   -1.6851   -0.1557    0.0738 C   0  0  0  0  0  0  0  0  0  0  0  0
   -0.2878   -0.1446    0.0265 C   0  0  0  0  0  0  0  0  0  0  0  0
    4.8251   -0.8631   -0.8235 N   0  0  0  0  0  0  0  0  0  0  0  0
   10.8134   -1.2425    0.4509 H   0  0  0  0  0  0  0  0  0  0  0  0
   10.8782    0.1876   -0.6344 H   0  0  0  0  0  0  0  0  0  0  0  0
    8.5455    0.2539    1.4173 H   0  0  0  0  0  0  0  0  0  0  0  0
    6.3830    0.8875    2.1438 H   0  0  0  0  0  0  0  0  0  0  0  0
    4.3932   -1.1060    1.7758 H   0  0  0  0  0  0  0  0  0  0  0  0
    4.0067    0.5996    2.1023 H   0  0  0  0  0  0  0  0  0  0  0  0
    4.2693    1.0734   -0.3401 H   0  0  0  0  0  0  0  0  0  0  0  0
    2.3075   -1.1887    0.2721 H   0  0  0  0  0  0  0  0  0  0  0  0
    2.2925   -0.1524   -1.1863 H   0  0  0  0  0  0  0  0  0  0  0  0
    2.4312    1.5072    1.1830 H   0  0  0  0  0  0  0  0  0  0  0  0
    0.3007    2.4890    2.0209 H   0  0  0  0  0  0  0  0  0  0  0  0
   -2.1933    2.4470    2.0881 H   0  0  0  0  0  0  0  0  0  0  0  0
   -4.2100   -0.8767   -0.3811 H   0  0  0  0  0  0  0  0  0  0  0  0
   -6.3721    0.7637    0.9655 H   0  0  0  0  0  0  0  0  0  0  0  0
   -6.4109   -0.5274   -1.8257 H   0  0  0  0  0  0  0  0  0  0  0  0
   -6.3109    1.1912   -1.4368 H   0  0  0  0  0  0  0  0  0  0  0  0
   -8.7328   -0.6221   -0.8633 H   0  0  0  0  0  0  0  0  0  0  0  0
   -8.5180    1.1119   -0.3842 H   0  0  0  0  0  0  0  0  0  0  0  0
   -7.9229    1.2290   -4.3629 H   0  0  0  0  0  0  0  0  0  0  0  0
   -8.3517   -2.4753    1.2201 H   0  0  0  0  0  0  0  0  0  0  0  0
   -2.2009   -0.9236   -0.4940 H   0  0  0  0  0  0  0  0  0  0  0  0
    0.2731   -0.8696   -0.5513 H   0  0  0  0  0  0  0  0  0  0  0  0
    4.4097   -1.5565   -1.4971 H   0  0  0  0  0  0  0  0  0  0  0  0
  1  2  1  0
  2  3  2  0
  3  4  1  0
  4  5  2  0
  4  6  1  0
  6  7  2  0
  7  8  1  0
  7  9  1  0
  9 10  1  0
 10 11  1  0
 11 12  1  0
 12 13  1  0
 13 14  1  0
 14 15  2  0
 15 16  1  0
 16 17  2  0
 17 18  1  0
 18 19  2  0
 18 20  1  0
 20 21  1  0
 21 22  1  0
 22 23  1  0
 23 24  1  0
 24 25  2  0
 24 26  1  0
 21 27  1  0
 27 28  2  0
 27 29  1  0
 17 30  1  0
 30 31  2  0
 11 32  1  0
  8  2  1  0
 31 14  1  0
 32  6  1  0
  1 33  1  0
  1 34  1  0
  8 35  1  0
  9 36  1  0
 10 37  1  0
 10 38  1  0
 11 39  1  6
 12 40  1  0
 12 41  1  0
 13 42  1  0
 15 43  1  0
 16 44  1  0
 20 45  1  0
 21 46  1  1
 22 47  1  0
 22 48  1  0
 23 49  1  0
 23 50  1  0
 26 51  1  0
 29 52  1  0
 30 53  1  0
 31 54  1  0
 32 55  1  0
M  END
$$$$

     RDKit          3D

 55 57  0  0  0  0  0  0  0  0999 V2000
    8.2013    1.7128   -2.9535 N   0  0  0  0  0  0  0  0  0  0  0  0
    7.0609    1.3778   -2.1791 C   0  0  0  0  0  0  0  0  0  0  0  0
    5.8532    1.9166   -2.3855 N   0  0  0  0  0  0  0  0  0  0  0  0
    4.7576    1.6013   -1.6511 C   0  0  0  0  0  0  0  0  0  0  0  0
    3.6351    2.1223   -1.8652 O   0  0  0  0  0  0  0  0  0  0  0  0
    4.8690    0.6842   -0.6375 C   0  0  0  0  0  0  0  0  0  0  0  0
    6.1250    0.1436   -0.4447 C   0  0  0  0  0  0  0  0  0  0  0  0
    7.1960    0.4709   -1.1853 N   0  0  0  0  0  0  0  0  0  0  0  0
    6.2819   -0.8089    0.5980 N   0  0  0  0  0  0  0  0  0  0  0  0
    5.1109   -1.3317    1.2183 C   0  0  0  0  0  0  0  0  0  0  0  0
    4.0253   -0.2458    1.4378 C   0  0  2  0  0  0  0  0  0  0  0  0
    3.0139   -0.8781    2.2641 C   0  0  0  0  0  0  0  0  0  0  0  0
    1.8473   -0.2446    2.6925 N   0  0  0  0  0  0  0  0  0  0  0  0
    0.6469    0.0663    2.0421 C   0  0  0  0  0  0  0  0  0  0  0  0
   -0.3456    0.8414    2.5960 C   0  0  0  0  0  0  0  0  0  0  0  0
   -1.5419    1.0937    1.9356 C   0  0  0  0  0  0  0  0  0  0  0  0
   -1.7822    0.5689    0.6782 C   0  0  0  0  0  0  0  0  0  0  0  0
   -3.0653    0.8195   -0.0113 C   0  0  0  0  0  0  0  0  0  0  0  0
   -3.1570    1.6464   -0.9496 O   0  0  0  0  0  0  0  0  0  0  0  0
   -4.2077    0.0971    0.4141 N   0  0  0  0  0  0  0  0  0  0  0  0
   -5.5364    0.2434   -0.1728 C   0  0  1  0  0  0  0  0  0  0  0  0
   -5.9741   -1.0648   -0.7994 C   0  0  0  0  0  0  0  0  0  0  0  0
   -7.3227   -0.9737   -1.4210 C   0  0  0  0  0  0  0  0  0  0  0  0
   -7.3720    0.0257   -2.5006 C   0  0  0  0  0  0  0  0  0  0  0  0
   -7.3639    1.2540   -2.3593 O   0  0  0  0  0  0  0  0  0  0  0  0
   -7.4359   -0.4531   -3.8282 O   0  0  0  0  0  0  0  0  0  0  0  0
   -6.4233    0.6884    0.9101 C   0  0  0  0  0  0  0  0  0  0  0  0
   -5.9829    0.8447    2.0707 O   0  0  0  0  0  0  0  0  0  0  0  0
   -7.7524    0.9418    0.6651 O   0  0  0  0  0  0  0  0  0  0  0  0
   -0.7958   -0.2043    0.1178 C   0  0  0  0  0  0  0  0  0  0  0  0
    0.3836   -0.4415    0.7946 C   0  0  0  0  0  0  0  0  0  0  0  0
    3.7325    0.3063    0.1784 N   0  0  0  0  0  0  0  0  0  0  0  0
    8.9032    2.3926   -2.6050 H   0  0  0  0  0  0  0  0  0  0  0  0
    8.3261    1.2634   -3.8803 H   0  0  0  0  0  0  0  0  0  0  0  0
    8.1153    0.0256   -0.9874 H   0  0  0  0  0  0  0  0  0  0  0  0
    7.2096   -1.1325    0.9187 H   0  0  0  0  0  0  0  0  0  0  0  0
    5.2921   -1.8623    2.1796 H   0  0  0  0  0  0  0  0  0  0  0  0
    4.6411   -2.0669    0.5338 H   0  0  0  0  0  0  0  0  0  0  0  0
    4.6016    0.5230    2.0604 H   0  0  0  0  0  0  0  0  0  0  0  0
    3.5484   -1.3138    3.1724 H   0  0  0  0  0  0  0  0  0  0  0  0
    2.6804   -1.8473    1.7453 H   0  0  0  0  0  0  0  0  0  0  0  0
    1.8656    0.0712    3.7285 H   0  0  0  0  0  0  0  0  0  0  0  0
   -0.2255    1.2783    3.5651 H   0  0  0  0  0  0  0  0  0  0  0  0
   -2.3183    1.7027    2.3718 H   0  0  0  0  0  0  0  0  0  0  0  0
   -4.0790   -0.5835    1.2010 H   0  0  0  0  0  0  0  0  0  0  0  0
   -5.5323    1.0080   -0.9682 H   0  0  0  0  0  0  0  0  0  0  0  0
   -5.8631   -1.9219   -0.1278 H   0  0  0  0  0  0  0  0  0  0  0  0
   -5.2555   -1.2640   -1.6557 H   0  0  0  0  0  0  0  0  0  0  0  0
   -8.1483   -0.8701   -0.6793 H   0  0  0  0  0  0  0  0  0  0  0  0
   -7.5329   -1.9860   -1.8901 H   0  0  0  0  0  0  0  0  0  0  0  0
   -7.5406    0.1649   -4.6160 H   0  0  0  0  0  0  0  0  0  0  0  0
   -8.3862    0.9688    1.4716 H   0  0  0  0  0  0  0  0  0  0  0  0
   -0.9705   -0.6171   -0.8605 H   0  0  0  0  0  0  0  0  0  0  0  0
    1.1634   -1.0700    0.3356 H   0  0  0  0  0  0  0  0  0  0  0  0
    2.8241    0.5005   -0.2831 H   0  0  0  0  0  0  0  0  0  0  0  0
  1  2  1  0
  2  3  2  0
  3  4  1  0
  4  5  2  0
  4  6  1  0
  6  7  2  0
  7  8  1  0
  7  9  1  0
  9 10  1  0
 10 11  1  0
 11 12  1  0
 12 13  1  0
 13 14  1  0
 14 15  2  0
 15 16  1  0
 16 17  2  0
 17 18  1  0
 18 19  2  0
 18 20  1  0
 20 21  1  0
 21 22  1  0
 22 23  1  0
 23 24  1  0
 24 25  2  0
 24 26  1  0
 21 27  1  0
 27 28  2  0
 27 29  1  0
 17 30  1  0
 30 31  2  0
 11 32  1  0
  8  2  1  0
 31 14  1  0
 32  6  1  0
  1 33  1  0
  1 34  1  0
  8 35  1  0
  9 36  1  0
 10 37  1  0
 10 38  1  0
 11 39  1  1
 12 40  1  0
 12 41  1  0
 13 42  1  0
 15 43  1  0
 16 44  1  0
 20 45  1  0
 21 46  1  6
 22 47  1  0
 22 48  1  0
 23 49  1  0
 23 50  1  0
 26 51  1  0
 29 52  1  0
 30 53  1  0
 31 54  1  0
 32 55  1  0
M  END
$$$$

     RDKit          3D

 55 57  0  0  0  0  0  0  0  0999 V2000
    8.6272    2.6194   -0.0499 N   0  0  0  0  0  0  0  0  0  0  0  0
    7.2562    2.2667    0.1380 C   0  0  0  0  0  0  0  0  0  0  0  0
    6.2432    3.0761   -0.1615 N   0  0  0  0  0  0  0  0  0  0  0  0
    4.9726    2.6999    0.0327 C   0  0  0  0  0  0  0  0  0  0  0  0
    4.0418    3.4832   -0.2587 O   0  0  0  0  0  0  0  0  0  0  0  0
    4.6720    1.4650    0.5480 C   0  0  0  0  0  0  0  0  0  0  0  0
    5.7355    0.6314    0.8559 C   0  0  0  0  0  0  0  0  0  0  0  0
    6.9933    1.0466    0.6460 N   0  0  0  0  0  0  0  0  0  0  0  0
    5.4065   -0.6394    1.3871 N   0  0  0  0  0  0  0  0  0  0  0  0
    4.0981   -0.9366    1.9444 C   0  0  0  0  0  0  0  0  0  0  0  0
    3.0503   -0.3594    1.0146 C   0  0  2  0  0  0  0  0  0  0  0  0
    3.1214   -1.1172   -0.2824 C   0  0  0  0  0  0  0  0  0  0  0  0
    2.1495   -0.6149   -1.1971 N   0  0  0  0  0  0  0  0  0  0  0  0
    0.7654   -0.8062   -0.9324 C   0  0  0  0  0  0  0  0  0  0  0  0
   -0.1696   -0.1023   -1.6897 C   0  0  0  0  0  0  0  0  0  0  0  0
   -1.5247   -0.2792   -1.4665 C   0  0  0  0  0  0  0  0  0  0  0  0
   -2.0119   -1.1364   -0.5104 C   0  0  0  0  0  0  0  0  0  0  0  0
   -3.4349   -1.3367   -0.2577 C   0  0  0  0  0  0  0  0  0  0  0  0
   -3.8282   -2.1560    0.6428 O   0  0  0  0  0  0  0  0  0  0  0  0
   -4.4640   -0.6720   -0.9551 N   0  0  0  0  0  0  0  0  0  0  0  0
   -5.8851   -0.9080   -0.6630 C   0  0  1  0  0  0  0  0  0  0  0  0
   -6.4754    0.4510   -0.3955 C   0  0  0  0  0  0  0  0  0  0  0  0
   -5.8645    1.1879    0.7464 C   0  0  0  0  0  0  0  0  0  0  0  0
   -5.9906    0.4869    2.0409 C   0  0  0  0  0  0  0  0  0  0  0  0
   -6.5797   -0.6136    2.1272 O   0  0  0  0  0  0  0  0  0  0  0  0
   -5.4552    1.0383    3.1932 O   0  0  0  0  0  0  0  0  0  0  0  0
   -6.5653   -1.4012   -1.9130 C   0  0  0  0  0  0  0  0  0  0  0  0
   -5.8665   -1.5298   -2.9490 O   0  0  0  0  0  0  0  0  0  0  0  0
   -7.8953   -1.7075   -1.9538 O   0  0  0  0  0  0  0  0  0  0  0  0
   -1.0937   -1.8359    0.2420 C   0  0  0  0  0  0  0  0  0  0  0  0
    0.2764   -1.6640    0.0235 C   0  0  0  0  0  0  0  0  0  0  0  0
    3.3334    1.0489    0.7604 N   0  0  0  0  0  0  0  0  0  0  0  0
    9.1133    2.4391   -0.9433 H   0  0  0  0  0  0  0  0  0  0  0  0
    9.0913    3.0715    0.7874 H   0  0  0  0  0  0  0  0  0  0  0  0
    7.7711    0.4112    0.8817 H   0  0  0  0  0  0  0  0  0  0  0  0
    6.1360   -1.3837    1.3739 H   0  0  0  0  0  0  0  0  0  0  0  0
    4.0041   -0.3926    2.9016 H   0  0  0  0  0  0  0  0  0  0  0  0
    3.9205   -2.0177    2.0193 H   0  0  0  0  0  0  0  0  0  0  0  0
    2.0892   -0.4063    1.5317 H   0  0  0  0  0  0  0  0  0  0  0  0
    4.1595   -0.9476   -0.6830 H   0  0  0  0  0  0  0  0  0  0  0  0
    2.9990   -2.1966   -0.0530 H   0  0  0  0  0  0  0  0  0  0  0  0
    2.4692   -0.1010   -2.0718 H   0  0  0  0  0  0  0  0  0  0  0  0
    0.2049    0.5795   -2.4499 H   0  0  0  0  0  0  0  0  0  0  0  0
   -2.2399    0.2714   -2.0594 H   0  0  0  0  0  0  0  0  0  0  0  0
   -4.2224    0.0033   -1.6954 H   0  0  0  0  0  0  0  0  0  0  0  0
   -6.0038   -1.6392    0.1341 H   0  0  0  0  0  0  0  0  0  0  0  0
   -6.2760    1.0606   -1.3184 H   0  0  0  0  0  0  0  0  0  0  0  0
   -7.5706    0.4087   -0.2267 H   0  0  0  0  0  0  0  0  0  0  0  0
   -6.4404    2.1564    0.8300 H   0  0  0  0  0  0  0  0  0  0  0  0
   -4.8178    1.5151    0.5469 H   0  0  0  0  0  0  0  0  0  0  0  0
   -5.8505    0.8836    4.1046 H   0  0  0  0  0  0  0  0  0  0  0  0
   -8.2276   -2.3622   -2.6609 H   0  0  0  0  0  0  0  0  0  0  0  0
   -1.4601   -2.5132    0.9969 H   0  0  0  0  0  0  0  0  0  0  0  0
    0.9539   -2.2439    0.6329 H   0  0  0  0  0  0  0  0  0  0  0  0
    2.5589    1.7185    0.7380 H   0  0  0  0  0  0  0  0  0  0  0  0
  1  2  1  0
  2  3  2  0
  3  4  1  0
  4  5  2  0
  4  6  1  0
  6  7  2  0
  7  8  1  0
  7  9  1  0
  9 10  1  0
 10 11  1  0
 11 12  1  0
 12 13  1  0
 13 14  1  0
 14 15  2  0
 15 16  1  0
 16 17  2  0
 17 18  1  0
 18 19  2  0
 18 20  1  0
 20 21  1  0
 21 22  1  0
 22 23  1  0
 23 24  1  0
 24 25  2  0
 24 26  1  0
 21 27  1  0
 27 28  2  0
 27 29  1  0
 17 30  1  0
 30 31  2  0
 11 32  1  0
  8  2  1  0
 31 14  1  0
 32  6  1  0
  1 33  1  0
  1 34  1  0
  8 35  1  0
  9 36  1  0
 10 37  1  0
 10 38  1  0
 11 39  1  1
 12 40  1  0
 12 41  1  0
 13 42  1  0
 15 43  1  0
 16 44  1  0
 20 45  1  0
 21 46  1  1
 22 47  1  0
 22 48  1  0
 23 49  1  0
 23 50  1  0
 26 51  1  0
 29 52  1  0
 30 53  1  0
 31 54  1  0
 32 55  1  0
M  END
$$$$

     RDKit          3D

 55 57  0  0  0  0  0  0  0  0999 V2000
   -9.8771    0.8959    1.4811 N   0  0  0  0  0  0  0  0  0  0  0  0
   -8.5005    0.6252    1.3219 C   0  0  0  0  0  0  0  0  0  0  0  0
   -7.5813    1.4312    1.8619 N   0  0  0  0  0  0  0  0  0  0  0  0
   -6.2820    1.1474    1.6930 C   0  0  0  0  0  0  0  0  0  0  0  0
   -5.3846    1.8897    2.1910 O   0  0  0  0  0  0  0  0  0  0  0  0
   -5.8327    0.0610    0.9874 C   0  0  0  0  0  0  0  0  0  0  0  0
   -6.8057   -0.7619    0.4356 C   0  0  0  0  0  0  0  0  0  0  0  0
   -8.1015   -0.4457    0.6258 N   0  0  0  0  0  0  0  0  0  0  0  0
   -6.3705   -1.8887   -0.2967 N   0  0  0  0  0  0  0  0  0  0  0  0
   -4.9794   -2.3224   -0.2969 C   0  0  0  0  0  0  0  0  0  0  0  0
   -4.1099   -1.0856   -0.3499 C   0  0  2  0  0  0  0  0  0  0  0  0
   -2.6524   -1.4040   -0.2431 C   0  0  0  0  0  0  0  0  0  0  0  0
   -1.9017   -0.1695   -0.3024 N   0  0  0  0  0  0  0  0  0  0  0  0
   -0.4968   -0.1811   -0.2233 C   0  0  0  0  0  0  0  0  0  0  0  0
    0.1639   -1.3739   -0.0886 C   0  0  0  0  0  0  0  0  0  0  0  0
    1.5280   -1.4015   -0.0105 C   0  0  0  0  0  0  0  0  0  0  0  0
    2.2793   -0.2387   -0.0643 C   0  0  0  0  0  0  0  0  0  0  0  0
    3.7279   -0.2801    0.0195 C   0  0  0  0  0  0  0  0  0  0  0  0
    4.3011   -1.3971    0.1404 O   0  0  0  0  0  0  0  0  0  0  0  0
    4.5708    0.8507   -0.0236 N   0  0  0  0  0  0  0  0  0  0  0  0
    6.0145    0.7724    0.0629 C   0  0  1  0  0  0  0  0  0  0  0  0
    6.5611    1.3928   -1.1992 C   0  0  0  0  0  0  0  0  0  0  0  0
    8.0467    1.3989   -1.2829 C   0  0  0  0  0  0  0  0  0  0  0  0
    8.6752    0.0749   -1.2436 C   0  0  0  0  0  0  0  0  0  0  0  0
    9.9348    0.0189   -1.3040 O   0  0  0  0  0  0  0  0  0  0  0  0
    8.0093   -1.1333   -1.1454 O   0  0  0  0  0  0  0  0  0  0  0  0
    6.4615    1.4446    1.2797 C   0  0  0  0  0  0  0  0  0  0  0  0
    5.6148    1.9693    2.0453 O   0  0  0  0  0  0  0  0  0  0  0  0
    7.7893    1.5539    1.6710 O   0  0  0  0  0  0  0  0  0  0  0  0
    1.6012    0.9475   -0.1995 C   0  0  0  0  0  0  0  0  0  0  0  0
    0.2115    1.0044   -0.2814 C   0  0  0  0  0  0  0  0  0  0  0  0
   -4.4755   -0.2597    0.7952 N   0  0  0  0  0  0  0  0  0  0  0  0
  -10.3139    0.7486    2.4131 H   0  0  0  0  0  0  0  0  0  0  0  0
  -10.4132    1.2381    0.6476 H   0  0  0  0  0  0  0  0  0  0  0  0
   -8.8230   -1.0940    0.1917 H   0  0  0  0  0  0  0  0  0  0  0  0
   -7.0692   -2.4226   -0.8520 H   0  0  0  0  0  0  0  0  0  0  0  0
   -4.8057   -3.0102   -1.1333 H   0  0  0  0  0  0  0  0  0  0  0  0
   -4.7286   -2.8371    0.6604 H   0  0  0  0  0  0  0  0  0  0  0  0
   -4.2935   -0.5057   -1.2988 H   0  0  0  0  0  0  0  0  0  0  0  0
   -2.4630   -1.9449    0.7062 H   0  0  0  0  0  0  0  0  0  0  0  0
   -2.3420   -2.0558   -1.1072 H   0  0  0  0  0  0  0  0  0  0  0  0
   -2.4053    0.7615   -0.4066 H   0  0  0  0  0  0  0  0  0  0  0  0
   -0.4007   -2.2830   -0.0453 H   0  0  0  0  0  0  0  0  0  0  0  0
    2.0658   -2.3342    0.0961 H   0  0  0  0  0  0  0  0  0  0  0  0
    4.1486    1.7954   -0.1223 H   0  0  0  0  0  0  0  0  0  0  0  0
    6.2639   -0.3043    0.1615 H   0  0  0  0  0  0  0  0  0  0  0  0
    6.2038    2.4326   -1.2333 H   0  0  0  0  0  0  0  0  0  0  0  0
    6.0964    0.8433   -2.0564 H   0  0  0  0  0  0  0  0  0  0  0  0
    8.3175    1.8650   -2.2610 H   0  0  0  0  0  0  0  0  0  0  0  0
    8.4338    2.0929   -0.5092 H   0  0  0  0  0  0  0  0  0  0  0  0
    8.3092   -1.9662   -1.6727 H   0  0  0  0  0  0  0  0  0  0  0  0
    8.0481    1.9119    2.5818 H   0  0  0  0  0  0  0  0  0  0  0  0
    2.1340    1.8804   -0.2465 H   0  0  0  0  0  0  0  0  0  0  0  0
   -0.3137    1.9456   -0.3879 H   0  0  0  0  0  0  0  0  0  0  0  0
   -3.7887    0.1074    1.4802 H   0  0  0  0  0  0  0  0  0  0  0  0
  1  2  1  0
  2  3  2  0
  3  4  1  0
  4  5  2  0
  4  6  1  0
  6  7  2  0
  7  8  1  0
  7  9  1  0
  9 10  1  0
 10 11  1  0
 11 12  1  0
 12 13  1  0
 13 14  1  0
 14 15  2  0
 15 16  1  0
 16 17  2  0
 17 18  1  0
 18 19  2  0
 18 20  1  0
 20 21  1  0
 21 22  1  0
 22 23  1  0
 23 24  1  0
 24 25  2  0
 24 26  1  0
 21 27  1  0
 27 28  2  0
 27 29  1  0
 17 30  1  0
 30 31  2  0
 11 32  1  0
  8  2  1  0
 31 14  1  0
 32  6  1  0
  1 33  1  0
  1 34  1  0
  8 35  1  0
  9 36  1  0
 10 37  1  0
 10 38  1  0
 11 39  1  6
 12 40  1  0
 12 41  1  0
 13 42  1  0
 15 43  1  0
 16 44  1  0
 20 45  1  0
 21 46  1  1
 22 47  1  0
 22 48  1  0
 23 49  1  0
 23 50  1  0
 26 51  1  0
 29 52  1  0
 30 53  1  0
 31 54  1  0
 32 55  1  0
M  END
$$$$

     RDKit          3D

 55 57  0  0  0  0  0  0  0  0999 V2000
   10.2407    0.4377   -0.2703 N   0  0  0  0  0  0  0  0  0  0  0  0
    8.8302    0.5996   -0.2252 C   0  0  0  0  0  0  0  0  0  0  0  0
    8.2421    1.5385   -0.9900 N   0  0  0  0  0  0  0  0  0  0  0  0
    6.9163    1.7421   -0.9941 C   0  0  0  0  0  0  0  0  0  0  0  0
    6.3509    2.6197   -1.7070 O   0  0  0  0  0  0  0  0  0  0  0  0
    6.1145    0.9535   -0.1768 C   0  0  0  0  0  0  0  0  0  0  0  0
    6.7466    0.0014    0.5940 C   0  0  0  0  0  0  0  0  0  0  0  0
    8.0900   -0.1841    0.5795 N   0  0  0  0  0  0  0  0  0  0  0  0
    5.9204   -0.8152    1.4388 N   0  0  0  0  0  0  0  0  0  0  0  0
    4.5283   -0.9456    1.0382 C   0  0  0  0  0  0  0  0  0  0  0  0
    3.9582    0.4550    0.8981 C   0  0  2  0  0  0  0  0  0  0  0  0
    2.5302    0.4168    0.4714 C   0  0  0  0  0  0  0  0  0  0  0  0
    1.6651   -0.2880    1.4025 N   0  0  0  0  0  0  0  0  0  0  0  0
    0.2851   -0.3900    1.1292 C   0  0  0  0  0  0  0  0  0  0  0  0
   -0.2586    0.1794    0.0064 C   0  0  0  0  0  0  0  0  0  0  0  0
   -1.6247    0.0702   -0.2500 C   0  0  0  0  0  0  0  0  0  0  0  0
   -2.4709   -0.5984    0.5922 C   0  0  0  0  0  0  0  0  0  0  0  0
   -3.8950   -0.7096    0.3297 C   0  0  0  0  0  0  0  0  0  0  0  0
   -4.6505   -1.4501    1.0216 O   0  0  0  0  0  0  0  0  0  0  0  0
   -4.5195    0.0031   -0.7137 N   0  0  0  0  0  0  0  0  0  0  0  0
   -5.9677   -0.1049   -0.9886 C   0  0  1  0  0  0  0  0  0  0  0  0
   -6.4753    1.3063   -0.8435 C   0  0  0  0  0  0  0  0  0  0  0  0
   -7.9313    1.4368   -1.0735 C   0  0  0  0  0  0  0  0  0  0  0  0
   -8.6813    0.6093   -0.1023 C   0  0  0  0  0  0  0  0  0  0  0  0
   -9.9361    0.5338   -0.2555 O   0  0  0  0  0  0  0  0  0  0  0  0
   -8.1418   -0.0869    0.9555 O   0  0  0  0  0  0  0  0  0  0  0  0
   -6.1303   -0.5519   -2.3822 C   0  0  0  0  0  0  0  0  0  0  0  0
   -5.0868   -0.7026   -3.1080 O   0  0  0  0  0  0  0  0  0  0  0  0
   -7.3870   -0.8017   -2.8795 O   0  0  0  0  0  0  0  0  0  0  0  0
   -1.9015   -1.1721    1.7305 C   0  0  0  0  0  0  0  0  0  0  0  0
   -0.5410   -1.0669    1.9915 C   0  0  0  0  0  0  0  0  0  0  0  0
    4.7021    1.1348   -0.1486 N   0  0  0  0  0  0  0  0  0  0  0  0
   10.6623   -0.1660   -1.0055 H   0  0  0  0  0  0  0  0  0  0  0  0
   10.8633    0.9110    0.4178 H   0  0  0  0  0  0  0  0  0  0  0  0
    8.5165   -0.9351    1.1973 H   0  0  0  0  0  0  0  0  0  0  0  0
    6.3299   -1.2689    2.2774 H   0  0  0  0  0  0  0  0  0  0  0  0
    3.9499   -1.5253    1.7861 H   0  0  0  0  0  0  0  0  0  0  0  0
    4.5162   -1.3958    0.0278 H   0  0  0  0  0  0  0  0  0  0  0  0
    4.0593    0.9600    1.8876 H   0  0  0  0  0  0  0  0  0  0  0  0
    2.1513    1.4229    0.2506 H   0  0  0  0  0  0  0  0  0  0  0  0
    2.4997   -0.1572   -0.5010 H   0  0  0  0  0  0  0  0  0  0  0  0
    2.0429   -0.7225    2.2735 H   0  0  0  0  0  0  0  0  0  0  0  0
    0.3840    0.7073   -0.6669 H   0  0  0  0  0  0  0  0  0  0  0  0
   -2.0059    0.5375   -1.1541 H   0  0  0  0  0  0  0  0  0  0  0  0
   -3.9813    0.6378   -1.3332 H   0  0  0  0  0  0  0  0  0  0  0  0
   -6.3489   -0.8129   -0.2530 H   0  0  0  0  0  0  0  0  0  0  0  0
   -6.2439    1.6835    0.2015 H   0  0  0  0  0  0  0  0  0  0  0  0
   -5.8602    1.9635   -1.5001 H   0  0  0  0  0  0  0  0  0  0  0  0
   -8.1695    1.1524   -2.1213 H   0  0  0  0  0  0  0  0  0  0  0  0
   -8.2190    2.5226   -0.9207 H   0  0  0  0  0  0  0  0  0  0  0  0
   -8.6674   -0.7527    1.5185 H   0  0  0  0  0  0  0  0  0  0  0  0
   -7.5445   -0.6778   -3.8886 H   0  0  0  0  0  0  0  0  0  0  0  0
   -2.5442   -1.6991    2.4022 H   0  0  0  0  0  0  0  0  0  0  0  0
   -0.1708   -1.5448    2.9066 H   0  0  0  0  0  0  0  0  0  0  0  0
    4.2591    1.7428   -0.8729 H   0  0  0  0  0  0  0  0  0  0  0  0
  1  2  1  0
  2  3  2  0
  3  4  1  0
  4  5  2  0
  4  6  1  0
  6  7  2  0
  7  8  1  0
  7  9  1  0
  9 10  1  0
 10 11  1  0
 11 12  1  0
 12 13  1  0
 13 14  1  0
 14 15  2  0
 15 16  1  0
 16 17  2  0
 17 18  1  0
 18 19  2  0
 18 20  1  0
 20 21  1  0
 21 22  1  0
 22 23  1  0
 23 24  1  0
 24 25  2  0
 24 26  1  0
 21 27  1  0
 27 28  2  0
 27 29  1  0
 17 30  1  0
 30 31  2  0
 11 32  1  0
  8  2  1  0
 31 14  1  0
 32  6  1  0
  1 33  1  0
  1 34  1  0
  8 35  1  0
  9 36  1  0
 10 37  1  0
 10 38  1  0
 11 39  1  1
 12 40  1  0
 12 41  1  0
 13 42  1  0
 15 43  1  0
 16 44  1  0
 20 45  1  0
 21 46  1  1
 22 47  1  0
 22 48  1  0
 23 49  1  0
 23 50  1  0
 26 51  1  0
 29 52  1  0
 30 53  1  0
 31 54  1  0
 32 55  1  0
M  END
$$$$

     RDKit          3D

 55 57  0  0  0  0  0  0  0  0999 V2000
   -9.5960    1.5693    0.1609 N   0  0  0  0  0  0  0  0  0  0  0  0
   -8.2658    1.1922    0.4375 C   0  0  0  0  0  0  0  0  0  0  0  0
   -7.8014    1.1025    1.6967 N   0  0  0  0  0  0  0  0  0  0  0  0
   -6.5373    0.7443    1.9921 C   0  0  0  0  0  0  0  0  0  0  0  0
   -6.1363    0.6706    3.1892 O   0  0  0  0  0  0  0  0  0  0  0  0
   -5.6560    0.4496    0.9879 C   0  0  0  0  0  0  0  0  0  0  0  0
   -6.1235    0.5392   -0.3019 C   0  0  0  0  0  0  0  0  0  0  0  0
   -7.3799    0.8976   -0.5366 N   0  0  0  0  0  0  0  0  0  0  0  0
   -5.1840    0.2427   -1.3398 N   0  0  0  0  0  0  0  0  0  0  0  0
   -3.7773    0.5357   -1.1502 C   0  0  0  0  0  0  0  0  0  0  0  0
   -3.3365   -0.1328    0.1373 C   0  0  2  0  0  0  0  0  0  0  0  0
   -3.0662   -1.5933   -0.2017 C   0  0  0  0  0  0  0  0  0  0  0  0
   -2.0364   -1.6162   -1.1934 N   0  0  0  0  0  0  0  0  0  0  0  0
   -0.7033   -1.2160   -0.9947 C   0  0  0  0  0  0  0  0  0  0  0  0
   -0.1915   -1.0410    0.2737 C   0  0  0  0  0  0  0  0  0  0  0  0
    1.1363   -0.6174    0.4131 C   0  0  0  0  0  0  0  0  0  0  0  0
    1.9257   -0.3761   -0.6762 C   0  0  0  0  0  0  0  0  0  0  0  0
    3.3147    0.0638   -0.5719 C   0  0  0  0  0  0  0  0  0  0  0  0
    3.7927    0.8350   -1.4776 O   0  0  0  0  0  0  0  0  0  0  0  0
    4.1556   -0.3361    0.4982 N   0  0  0  0  0  0  0  0  0  0  0  0
    5.5652    0.1440    0.5826 C   0  0  1  0  0  0  0  0  0  0  0  0
    6.4569   -0.7225   -0.2258 C   0  0  0  0  0  0  0  0  0  0  0  0
    7.8929   -0.3387   -0.1823 C   0  0  0  0  0  0  0  0  0  0  0  0
    8.4149   -0.4327    1.2023 C   0  0  0  0  0  0  0  0  0  0  0  0
    7.7298   -0.8799    2.1310 O   0  0  0  0  0  0  0  0  0  0  0  0
    9.7223   -0.0078    1.4939 O   0  0  0  0  0  0  0  0  0  0  0  0
    5.5539    1.5713    0.1963 C   0  0  0  0  0  0  0  0  0  0  0  0
    4.5160    2.2617    0.4845 O   0  0  0  0  0  0  0  0  0  0  0  0
    6.5519    2.2496   -0.4497 O   0  0  0  0  0  0  0  0  0  0  0  0
    1.4128   -0.5527   -1.9566 C   0  0  0  0  0  0  0  0  0  0  0  0
    0.1267   -0.9634   -2.0960 C   0  0  0  0  0  0  0  0  0  0  0  0
   -4.3028    0.0574    1.1663 N   0  0  0  0  0  0  0  0  0  0  0  0
   -9.9379    2.4965    0.4490 H   0  0  0  0  0  0  0  0  0  0  0  0
  -10.2228    0.9164   -0.3314 H   0  0  0  0  0  0  0  0  0  0  0  0
   -7.6850    0.9469   -1.5332 H   0  0  0  0  0  0  0  0  0  0  0  0
   -5.5681   -0.1854   -2.2277 H   0  0  0  0  0  0  0  0  0  0  0  0
   -3.2550    0.1418   -2.0435 H   0  0  0  0  0  0  0  0  0  0  0  0
   -3.5733    1.6147   -1.0527 H   0  0  0  0  0  0  0  0  0  0  0  0
   -2.3747    0.3340    0.4271 H   0  0  0  0  0  0  0  0  0  0  0  0
   -3.9724   -2.0972   -0.5347 H   0  0  0  0  0  0  0  0  0  0  0  0
   -2.7564   -2.0714    0.7548 H   0  0  0  0  0  0  0  0  0  0  0  0
   -2.3089   -1.9630   -2.1609 H   0  0  0  0  0  0  0  0  0  0  0  0
   -0.7509   -1.2147    1.1736 H   0  0  0  0  0  0  0  0  0  0  0  0
    1.5224   -0.4854    1.4093 H   0  0  0  0  0  0  0  0  0  0  0  0
    3.7817   -0.9772    1.2339 H   0  0  0  0  0  0  0  0  0  0  0  0
    5.7684    0.1290    1.6781 H   0  0  0  0  0  0  0  0  0  0  0  0
    6.0805   -0.8082   -1.2883 H   0  0  0  0  0  0  0  0  0  0  0  0
    6.3483   -1.7953    0.1483 H   0  0  0  0  0  0  0  0  0  0  0  0
    8.0885    0.6855   -0.5435 H   0  0  0  0  0  0  0  0  0  0  0  0
    8.4552   -1.0713   -0.8526 H   0  0  0  0  0  0  0  0  0  0  0  0
   10.1759   -0.3606    2.3161 H   0  0  0  0  0  0  0  0  0  0  0  0
    6.3241    3.0688   -1.0052 H   0  0  0  0  0  0  0  0  0  0  0  0
    2.0040   -0.3751   -2.8550 H   0  0  0  0  0  0  0  0  0  0  0  0
   -0.3261   -1.1187   -3.0666 H   0  0  0  0  0  0  0  0  0  0  0  0
   -3.9914   -0.1097    2.1707 H   0  0  0  0  0  0  0  0  0  0  0  0
  1  2  1  0
  2  3  2  0
  3  4  1  0
  4  5  2  0
  4  6  1  0
  6  7  2  0
  7  8  1  0
  7  9  1  0
  9 10  1  0
 10 11  1  0
 11 12  1  0
 12 13  1  0
 13 14  1  0
 14 15  2  0
 15 16  1  0
 16 17  2  0
 17 18  1  0
 18 19  2  0
 18 20  1  0
 20 21  1  0
 21 22  1  0
 22 23  1  0
 23 24  1  0
 24 25  2  0
 24 26  1  0
 21 27  1  0
 27 28  2  0
 27 29  1  0
 17 30  1  0
 30 31  2  0
 11 32  1  0
  8  2  1  0
 31 14  1  0
 32  6  1  0
  1 33  1  0
  1 34  1  0
  8 35  1  0
  9 36  1  0
 10 37  1  0
 10 38  1  0
 11 39  1  1
 12 40  1  0
 12 41  1  0
 13 42  1  0
 15 43  1  0
 16 44  1  0
 20 45  1  0
 21 46  1  1
 22 47  1  0
 22 48  1  0
 23 49  1  0
 23 50  1  0
 26 51  1  0
 29 52  1  0
 30 53  1  0
 31 54  1  0
 32 55  1  0
M  END
$$$$

     RDKit          3D

 55 57  0  0  0  0  0  0  0  0999 V2000
    8.8312    1.8102   -0.6230 N   0  0  0  0  0  0  0  0  0  0  0  0
    7.5097    1.4944   -0.2339 C   0  0  0  0  0  0  0  0  0  0  0  0
    6.5993    2.4854   -0.1437 N   0  0  0  0  0  0  0  0  0  0  0  0
    5.3372    2.2320    0.2236 C   0  0  0  0  0  0  0  0  0  0  0  0
    4.4339    3.1122    0.3283 O   0  0  0  0  0  0  0  0  0  0  0  0
    4.9901    0.9280    0.5084 C   0  0  0  0  0  0  0  0  0  0  0  0
    5.9309   -0.0713    0.4111 C   0  0  0  0  0  0  0  0  0  0  0  0
    7.1695    0.2231    0.0440 N   0  0  0  0  0  0  0  0  0  0  0  0
    5.6098   -1.4348    0.6961 N   0  0  0  0  0  0  0  0  0  0  0  0
    4.3091   -1.7980    1.1703 C   0  0  0  0  0  0  0  0  0  0  0  0
    3.2468   -0.8024    0.7214 C   0  0  2  0  0  0  0  0  0  0  0  0
    3.0215   -1.0149   -0.7439 C   0  0  0  0  0  0  0  0  0  0  0  0
    2.0394   -0.1740   -1.3456 N   0  0  0  0  0  0  0  0  0  0  0  0
    0.6323   -0.2276   -1.0904 C   0  0  0  0  0  0  0  0  0  0  0  0
    0.0499   -1.1983   -0.3127 C   0  0  0  0  0  0  0  0  0  0  0  0
   -1.3342   -1.2132   -0.0876 C   0  0  0  0  0  0  0  0  0  0  0  0
   -2.1606   -0.2657   -0.6308 C   0  0  0  0  0  0  0  0  0  0  0  0
   -3.6142   -0.2515   -0.4101 C   0  0  0  0  0  0  0  0  0  0  0  0
   -4.2957    0.5502   -1.1329 O   0  0  0  0  0  0  0  0  0  0  0  0
   -4.2922   -1.0426    0.5243 N   0  0  0  0  0  0  0  0  0  0  0  0
   -5.6738   -1.1072    0.8536 C   0  0  1  0  0  0  0  0  0  0  0  0
   -6.4659    0.0946    0.3775 C   0  0  0  0  0  0  0  0  0  0  0  0
   -6.0186    1.3674    1.0174 C   0  0  0  0  0  0  0  0  0  0  0  0
   -6.8418    2.4692    0.4378 C   0  0  0  0  0  0  0  0  0  0  0  0
   -8.0895    2.3814    0.5103 O   0  0  0  0  0  0  0  0  0  0  0  0
   -6.2760    3.5835   -0.1759 O   0  0  0  0  0  0  0  0  0  0  0  0
   -6.3343   -2.3574    0.5462 C   0  0  0  0  0  0  0  0  0  0  0  0
   -5.7342   -3.3451    0.0129 O   0  0  0  0  0  0  0  0  0  0  0  0
   -7.6868   -2.5813    0.8098 O   0  0  0  0  0  0  0  0  0  0  0  0
   -1.5648    0.7163   -1.4185 C   0  0  0  0  0  0  0  0  0  0  0  0
   -0.2031    0.7277   -1.6371 C   0  0  0  0  0  0  0  0  0  0  0  0
    3.6733    0.5607    0.9084 N   0  0  0  0  0  0  0  0  0  0  0  0
    9.2464    2.7521   -0.4116 H   0  0  0  0  0  0  0  0  0  0  0  0
    9.4577    1.1370   -1.1287 H   0  0  0  0  0  0  0  0  0  0  0  0
    7.9119   -0.5261   -0.0399 H   0  0  0  0  0  0  0  0  0  0  0  0
    6.3377   -2.1604    0.5530 H   0  0  0  0  0  0  0  0  0  0  0  0
    4.2609   -1.9216    2.2614 H   0  0  0  0  0  0  0  0  0  0  0  0
    4.0482   -2.7699    0.6539 H   0  0  0  0  0  0  0  0  0  0  0  0
    2.3854   -0.9685    1.3652 H   0  0  0  0  0  0  0  0  0  0  0  0
    2.6912   -2.0803   -0.8666 H   0  0  0  0  0  0  0  0  0  0  0  0
    3.9767   -0.9459   -1.2912 H   0  0  0  0  0  0  0  0  0  0  0  0
    2.3872    0.5545   -2.0416 H   0  0  0  0  0  0  0  0  0  0  0  0
    0.6482   -1.9777    0.1369 H   0  0  0  0  0  0  0  0  0  0  0  0
   -1.7592   -1.9989    0.5347 H   0  0  0  0  0  0  0  0  0  0  0  0
   -3.6425   -1.7055    1.0801 H   0  0  0  0  0  0  0  0  0  0  0  0
   -5.6819   -0.9786    2.0128 H   0  0  0  0  0  0  0  0  0  0  0  0
   -7.5177   -0.1067    0.7655 H   0  0  0  0  0  0  0  0  0  0  0  0
   -6.4708    0.0934   -0.7175 H   0  0  0  0  0  0  0  0  0  0  0  0
   -6.3347    1.3694    2.1224 H   0  0  0  0  0  0  0  0  0  0  0  0
   -4.9706    1.6093    1.0424 H   0  0  0  0  0  0  0  0  0  0  0  0
   -6.7639    4.0334   -0.9481 H   0  0  0  0  0  0  0  0  0  0  0  0
   -8.0948   -3.5022    0.8677 H   0  0  0  0  0  0  0  0  0  0  0  0
   -2.2137    1.4604   -1.8442 H   0  0  0  0  0  0  0  0  0  0  0  0
    0.2553    1.5043   -2.2606 H   0  0  0  0  0  0  0  0  0  0  0  0
    3.0442    1.2776    1.3263 H   0  0  0  0  0  0  0  0  0  0  0  0
  1  2  1  0
  2  3  2  0
  3  4  1  0
  4  5  2  0
  4  6  1  0
  6  7  2  0
  7  8  1  0
  7  9  1  0
  9 10  1  0
 10 11  1  0
 11 12  1  0
 12 13  1  0
 13 14  1  0
 14 15  2  0
 15 16  1  0
 16 17  2  0
 17 18  1  0
 18 19  2  0
 18 20  1  0
 20 21  1  0
 21 22  1  0
 22 23  1  0
 23 24  1  0
 24 25  2  0
 24 26  1  0
 21 27  1  0
 27 28  2  0
 27 29  1  0
 17 30  1  0
 30 31  2  0
 11 32  1  0
  8  2  1  0
 31 14  1  0
 32  6  1  0
  1 33  1  0
  1 34  1  0
  8 35  1  0
  9 36  1  0
 10 37  1  0
 10 38  1  0
 11 39  1  1
 12 40  1  0
 12 41  1  0
 13 42  1  0
 15 43  1  0
 16 44  1  0
 20 45  1  0
 21 46  1  1
 22 47  1  0
 22 48  1  0
 23 49  1  0
 23 50  1  0
 26 51  1  0
 29 52  1  0
 30 53  1  0
 31 54  1  0
 32 55  1  0
M  END
$$$$

     RDKit          3D

 55 57  0  0  0  0  0  0  0  0999 V2000
   -9.1500    2.6830   -0.1555 N   0  0  0  0  0  0  0  0  0  0  0  0
   -8.1359    1.7476   -0.4676 C   0  0  0  0  0  0  0  0  0  0  0  0
   -7.9534    1.2846   -1.7352 N   0  0  0  0  0  0  0  0  0  0  0  0
   -6.9783    0.3964   -2.0009 C   0  0  0  0  0  0  0  0  0  0  0  0
   -6.7989   -0.0438   -3.1872 O   0  0  0  0  0  0  0  0  0  0  0  0
   -6.1347   -0.0768   -1.0184 C   0  0  0  0  0  0  0  0  0  0  0  0
   -6.3199    0.3902    0.2570 C   0  0  0  0  0  0  0  0  0  0  0  0
   -7.3071    1.2790    0.4832 N   0  0  0  0  0  0  0  0  0  0  0  0
   -5.4623   -0.0880    1.2757 N   0  0  0  0  0  0  0  0  0  0  0  0
   -4.5637   -1.2060    1.1396 C   0  0  0  0  0  0  0  0  0  0  0  0
   -4.1423   -1.4331   -0.2921 C   0  0  2  0  0  0  0  0  0  0  0  0
   -2.8171   -0.7424   -0.4759 C   0  0  0  0  0  0  0  0  0  0  0  0
   -1.8696   -1.3354    0.4421 N   0  0  0  0  0  0  0  0  0  0  0  0
   -0.5532   -0.8138    0.4871 C   0  0  0  0  0  0  0  0  0  0  0  0
    0.3892   -1.4723    1.2531 C   0  0  0  0  0  0  0  0  0  0  0  0
    1.6616   -0.9379    1.2880 C   0  0  0  0  0  0  0  0  0  0  0  0
    2.0077    0.2010    0.6007 C   0  0  0  0  0  0  0  0  0  0  0  0
    3.3495    0.7409    0.6491 C   0  0  0  0  0  0  0  0  0  0  0  0
    3.5631    1.8201    1.2338 O   0  0  0  0  0  0  0  0  0  0  0  0
    4.4040    0.0264    0.0253 N   0  0  0  0  0  0  0  0  0  0  0  0
    5.8039    0.5197    0.0392 C   0  0  1  0  0  0  0  0  0  0  0  0
    6.5843   -0.4729    0.8297 C   0  0  0  0  0  0  0  0  0  0  0  0
    8.0250   -0.2863    1.0257 C   0  0  0  0  0  0  0  0  0  0  0  0
    8.7946   -0.3748   -0.2239 C   0  0  0  0  0  0  0  0  0  0  0  0
    9.8064    0.3686   -0.4078 O   0  0  0  0  0  0  0  0  0  0  0  0
    8.4742   -1.2575   -1.2541 O   0  0  0  0  0  0  0  0  0  0  0  0
    6.1608    0.7728   -1.3350 C   0  0  0  0  0  0  0  0  0  0  0  0
    5.4205    0.3946   -2.3006 O   0  0  0  0  0  0  0  0  0  0  0  0
    7.3126    1.4409   -1.6968 O   0  0  0  0  0  0  0  0  0  0  0  0
    1.0373    0.8192   -0.1464 C   0  0  0  0  0  0  0  0  0  0  0  0
   -0.2607    0.3308   -0.2225 C   0  0  0  0  0  0  0  0  0  0  0  0
   -5.1010   -1.0073   -1.2593 N   0  0  0  0  0  0  0  0  0  0  0  0
   -9.4386    2.8034    0.8299 H   0  0  0  0  0  0  0  0  0  0  0  0
   -9.6108    3.2493   -0.8893 H   0  0  0  0  0  0  0  0  0  0  0  0
   -7.4291    1.6191    1.4597 H   0  0  0  0  0  0  0  0  0  0  0  0
   -5.4843    0.4061    2.1931 H   0  0  0  0  0  0  0  0  0  0  0  0
   -5.0302   -2.1251    1.5705 H   0  0  0  0  0  0  0  0  0  0  0  0
   -3.6783   -0.9995    1.7838 H   0  0  0  0  0  0  0  0  0  0  0  0
   -3.9625   -2.5248   -0.3986 H   0  0  0  0  0  0  0  0  0  0  0  0
   -2.4308   -0.8393   -1.5153 H   0  0  0  0  0  0  0  0  0  0  0  0
   -2.9271    0.3395   -0.1983 H   0  0  0  0  0  0  0  0  0  0  0  0
   -2.1089   -2.1287    1.0742 H   0  0  0  0  0  0  0  0  0  0  0  0
    0.1272   -2.3745    1.8051 H   0  0  0  0  0  0  0  0  0  0  0  0
    2.4089   -1.4516    1.8888 H   0  0  0  0  0  0  0  0  0  0  0  0
    4.1859   -0.8704   -0.4577 H   0  0  0  0  0  0  0  0  0  0  0  0
    5.7554    1.4583    0.6582 H   0  0  0  0  0  0  0  0  0  0  0  0
    6.0753   -0.5043    1.8560 H   0  0  0  0  0  0  0  0  0  0  0  0
    6.3638   -1.5206    0.4281 H   0  0  0  0  0  0  0  0  0  0  0  0
    8.4313   -1.0347    1.7763 H   0  0  0  0  0  0  0  0  0  0  0  0
    8.1797    0.7451    1.4730 H   0  0  0  0  0  0  0  0  0  0  0  0
    8.7804   -1.0070   -2.2026 H   0  0  0  0  0  0  0  0  0  0  0  0
    7.3419    1.9461   -2.5697 H   0  0  0  0  0  0  0  0  0  0  0  0
    1.2594    1.7229   -0.7098 H   0  0  0  0  0  0  0  0  0  0  0  0
   -1.0090    0.8304   -0.8133 H   0  0  0  0  0  0  0  0  0  0  0  0
   -5.0463   -1.4069   -2.2192 H   0  0  0  0  0  0  0  0  0  0  0  0
  1  2  1  0
  2  3  2  0
  3  4  1  0
  4  5  2  0
  4  6  1  0
  6  7  2  0
  7  8  1  0
  7  9  1  0
  9 10  1  0
 10 11  1  0
 11 12  1  0
 12 13  1  0
 13 14  1  0
 14 15  2  0
 15 16  1  0
 16 17  2  0
 17 18  1  0
 18 19  2  0
 18 20  1  0
 20 21  1  0
 21 22  1  0
 22 23  1  0
 23 24  1  0
 24 25  2  0
 24 26  1  0
 21 27  1  0
 27 28  2  0
 27 29  1  0
 17 30  1  0
 30 31  2  0
 11 32  1  0
  8  2  1  0
 31 14  1  0
 32  6  1  0
  1 33  1  0
  1 34  1  0
  8 35  1  0
  9 36  1  0
 10 37  1  0
 10 38  1  0
 11 39  1  1
 12 40  1  0
 12 41  1  0
 13 42  1  0
 15 43  1  0
 16 44  1  0
 20 45  1  0
 21 46  1  1
 22 47  1  0
 22 48  1  0
 23 49  1  0
 23 50  1  0
 26 51  1  0
 29 52  1  0
 30 53  1  0
 31 54  1  0
 32 55  1  0
M  END
$$$$

     RDKit          3D

 55 57  0  0  0  0  0  0  0  0999 V2000
    8.7222    1.0346   -2.2444 N   0  0  0  0  0  0  0  0  0  0  0  0
    7.3695    1.0257   -1.8138 C   0  0  0  0  0  0  0  0  0  0  0  0
    6.3432    0.8636   -2.6652 N   0  0  0  0  0  0  0  0  0  0  0  0
    5.0676    0.8512   -2.2913 C   0  0  0  0  0  0  0  0  0  0  0  0
    4.1050    0.6990   -3.0905 O   0  0  0  0  0  0  0  0  0  0  0  0
    4.7852    1.0161   -0.9379 C   0  0  0  0  0  0  0  0  0  0  0  0
    5.8201    1.1820   -0.0614 C   0  0  0  0  0  0  0  0  0  0  0  0
    7.0928    1.1872   -0.4889 N   0  0  0  0  0  0  0  0  0  0  0  0
    5.5273    1.3493    1.3162 N   0  0  0  0  0  0  0  0  0  0  0  0
    4.1936    1.3036    1.8552 C   0  0  0  0  0  0  0  0  0  0  0  0
    3.1832    0.6728    0.9220 C   0  0  2  0  0  0  0  0  0  0  0  0
    3.2309   -0.8384    0.9934 C   0  0  0  0  0  0  0  0  0  0  0  0
    2.2524   -1.3796    0.0972 N   0  0  0  0  0  0  0  0  0  0  0  0
    0.8743   -1.2120    0.3640 C   0  0  0  0  0  0  0  0  0  0  0  0
    0.4405   -0.7791    1.6067 C   0  0  0  0  0  0  0  0  0  0  0  0
   -0.9043   -0.6190    1.8014 C   0  0  0  0  0  0  0  0  0  0  0  0
   -1.8521   -0.8646    0.8312 C   0  0  0  0  0  0  0  0  0  0  0  0
   -3.2645   -0.6662    1.1271 C   0  0  0  0  0  0  0  0  0  0  0  0
   -3.5835   -0.2791    2.2752 O   0  0  0  0  0  0  0  0  0  0  0  0
   -4.3199   -0.8810    0.2016 N   0  0  0  0  0  0  0  0  0  0  0  0
   -5.7152   -0.6706    0.5394 C   0  0  1  0  0  0  0  0  0  0  0  0
   -6.3389    0.4124   -0.3138 C   0  0  0  0  0  0  0  0  0  0  0  0
   -6.2980    0.0998   -1.7720 C   0  0  0  0  0  0  0  0  0  0  0  0
   -6.9330    1.2222   -2.5098 C   0  0  0  0  0  0  0  0  0  0  0  0
   -7.3989    2.2243   -1.9097 O   0  0  0  0  0  0  0  0  0  0  0  0
   -7.0301    1.1941   -3.8969 O   0  0  0  0  0  0  0  0  0  0  0  0
   -6.4265   -1.9529    0.4214 C   0  0  0  0  0  0  0  0  0  0  0  0
   -5.8181   -2.9823    0.0797 O   0  0  0  0  0  0  0  0  0  0  0  0
   -7.7764   -2.0088    0.6923 O   0  0  0  0  0  0  0  0  0  0  0  0
   -1.3742   -1.2933   -0.3867 C   0  0  0  0  0  0  0  0  0  0  0  0
   -0.0428   -1.4704   -0.6379 C   0  0  0  0  0  0  0  0  0  0  0  0
    3.4540    1.0146   -0.4622 N   0  0  0  0  0  0  0  0  0  0  0  0
    9.2351    1.9328   -2.2523 H   0  0  0  0  0  0  0  0  0  0  0  0
    9.1591    0.1488   -2.5376 H   0  0  0  0  0  0  0  0  0  0  0  0
    7.8608    1.3141    0.1896 H   0  0  0  0  0  0  0  0  0  0  0  0
    6.3007    1.5166    2.0038 H   0  0  0  0  0  0  0  0  0  0  0  0
    3.8805    2.3413    2.0792 H   0  0  0  0  0  0  0  0  0  0  0  0
    4.2505    0.6996    2.7952 H   0  0  0  0  0  0  0  0  0  0  0  0
    2.2038    1.0989    1.1696 H   0  0  0  0  0  0  0  0  0  0  0  0
    3.0614   -1.2133    2.0257 H   0  0  0  0  0  0  0  0  0  0  0  0
    4.2697   -1.1741    0.7385 H   0  0  0  0  0  0  0  0  0  0  0  0
    2.5469   -1.8947   -0.7473 H   0  0  0  0  0  0  0  0  0  0  0  0
    1.1709   -0.5854    2.4071 H   0  0  0  0  0  0  0  0  0  0  0  0
   -1.2494   -0.2820    2.7650 H   0  0  0  0  0  0  0  0  0  0  0  0
   -4.0458   -1.2033   -0.7513 H   0  0  0  0  0  0  0  0  0  0  0  0
   -5.8327   -0.3319    1.5949 H   0  0  0  0  0  0  0  0  0  0  0  0
   -5.8525    1.3913   -0.1361 H   0  0  0  0  0  0  0  0  0  0  0  0
   -7.3953    0.5278   -0.0026 H   0  0  0  0  0  0  0  0  0  0  0  0
   -6.8898   -0.8155   -1.9933 H   0  0  0  0  0  0  0  0  0  0  0  0
   -5.2452   -0.0054   -2.0932 H   0  0  0  0  0  0  0  0  0  0  0  0
   -7.4164    1.9761   -4.4395 H   0  0  0  0  0  0  0  0  0  0  0  0
   -8.3204   -2.8461    0.7451 H   0  0  0  0  0  0  0  0  0  0  0  0
   -2.0955   -1.4949   -1.1694 H   0  0  0  0  0  0  0  0  0  0  0  0
    0.3334   -1.8089   -1.6000 H   0  0  0  0  0  0  0  0  0  0  0  0
    2.6850    1.2530   -1.0939 H   0  0  0  0  0  0  0  0  0  0  0  0
  1  2  1  0
  2  3  2  0
  3  4  1  0
  4  5  2  0
  4  6  1  0
  6  7  2  0
  7  8  1  0
  7  9  1  0
  9 10  1  0
 10 11  1  0
 11 12  1  0
 12 13  1  0
 13 14  1  0
 14 15  2  0
 15 16  1  0
 16 17  2  0
 17 18  1  0
 18 19  2  0
 18 20  1  0
 20 21  1  0
 21 22  1  0
 22 23  1  0
 23 24  1  0
 24 25  2  0
 24 26  1  0
 21 27  1  0
 27 28  2  0
 27 29  1  0
 17 30  1  0
 30 31  2  0
 11 32  1  0
  8  2  1  0
 31 14  1  0
 32  6  1  0
  1 33  1  0
  1 34  1  0
  8 35  1  0
  9 36  1  0
 10 37  1  0
 10 38  1  0
 11 39  1  1
 12 40  1  0
 12 41  1  0
 13 42  1  0
 15 43  1  0
 16 44  1  0
 20 45  1  0
 21 46  1  1
 22 47  1  0
 22 48  1  0
 23 49  1  0
 23 50  1  0
 26 51  1  0
 29 52  1  0
 30 53  1  0
 31 54  1  0
 32 55  1  0
M  END
$$$$

     RDKit          3D

 55 57  0  0  0  0  0  0  0  0999 V2000
    9.2085    1.9982    0.6609 N   0  0  0  0  0  0  0  0  0  0  0  0
    7.9769    1.4892    0.1234 C   0  0  0  0  0  0  0  0  0  0  0  0
    7.6682    1.6163   -1.1791 N   0  0  0  0  0  0  0  0  0  0  0  0
    6.5082    1.1297   -1.6576 C   0  0  0  0  0  0  0  0  0  0  0  0
    6.1818    1.2299   -2.8789 O   0  0  0  0  0  0  0  0  0  0  0  0
    5.5903    0.4845   -0.8449 C   0  0  0  0  0  0  0  0  0  0  0  0
    5.9138    0.3587    0.4878 C   0  0  0  0  0  0  0  0  0  0  0  0
    7.0900    0.8642    0.9171 N   0  0  0  0  0  0  0  0  0  0  0  0
    4.9964   -0.2928    1.3341 N   0  0  0  0  0  0  0  0  0  0  0  0
    3.9018   -1.1153    0.8733 C   0  0  0  0  0  0  0  0  0  0  0  0
    3.3861   -0.7205   -0.4903 C   0  0  2  0  0  0  0  0  0  0  0  0
    2.8940   -1.9623   -1.1981 C   0  0  0  0  0  0  0  0  0  0  0  0
    1.8419   -2.5897   -0.4680 N   0  0  0  0  0  0  0  0  0  0  0  0
    0.5504   -2.0335   -0.2872 C   0  0  0  0  0  0  0  0  0  0  0  0
    0.0837   -0.9530   -0.9991 C   0  0  0  0  0  0  0  0  0  0  0  0
   -1.1739   -0.4113   -0.7981 C   0  0  0  0  0  0  0  0  0  0  0  0
   -2.0181   -0.9481    0.1413 C   0  0  0  0  0  0  0  0  0  0  0  0
   -3.3649   -0.4137    0.3967 C   0  0  0  0  0  0  0  0  0  0  0  0
   -4.0325   -0.9243    1.3254 O   0  0  0  0  0  0  0  0  0  0  0  0
   -3.9336    0.6402   -0.3519 N   0  0  0  0  0  0  0  0  0  0  0  0
   -5.2660    1.1535   -0.0777 C   0  0  1  0  0  0  0  0  0  0  0  0
   -6.2667    0.0938   -0.3734 C   0  0  0  0  0  0  0  0  0  0  0  0
   -7.6954    0.4597   -0.1575 C   0  0  0  0  0  0  0  0  0  0  0  0
   -8.1031    1.5766   -1.0176 C   0  0  0  0  0  0  0  0  0  0  0  0
   -7.6757    2.7243   -0.8134 O   0  0  0  0  0  0  0  0  0  0  0  0
   -8.9744    1.3521   -2.0706 O   0  0  0  0  0  0  0  0  0  0  0  0
   -5.3214    1.6424    1.3316 C   0  0  0  0  0  0  0  0  0  0  0  0
   -4.2709    1.5733    2.0159 O   0  0  0  0  0  0  0  0  0  0  0  0
   -6.4425    2.1638    1.9358 O   0  0  0  0  0  0  0  0  0  0  0  0
   -1.5464   -2.0363    0.8567 C   0  0  0  0  0  0  0  0  0  0  0  0
   -0.3004   -2.5710    0.6562 C   0  0  0  0  0  0  0  0  0  0  0  0
    4.3732   -0.0376   -1.3000 N   0  0  0  0  0  0  0  0  0  0  0  0
   10.1083    1.4969    0.5159 H   0  0  0  0  0  0  0  0  0  0  0  0
    9.2463    2.8831    1.2123 H   0  0  0  0  0  0  0  0  0  0  0  0
    7.3187    0.7630    1.9167 H   0  0  0  0  0  0  0  0  0  0  0  0
    5.1116   -0.1766    2.3621 H   0  0  0  0  0  0  0  0  0  0  0  0
    4.2108   -2.1798    0.9183 H   0  0  0  0  0  0  0  0  0  0  0  0
    3.0622   -0.9824    1.5884 H   0  0  0  0  0  0  0  0  0  0  0  0
    2.5331   -0.0267   -0.3836 H   0  0  0  0  0  0  0  0  0  0  0  0
    2.4721   -1.7036   -2.2128 H   0  0  0  0  0  0  0  0  0  0  0  0
    3.7261   -2.6434   -1.3960 H   0  0  0  0  0  0  0  0  0  0  0  0
    2.0405   -3.5247   -0.0378 H   0  0  0  0  0  0  0  0  0  0  0  0
    0.7130   -0.4931   -1.7704 H   0  0  0  0  0  0  0  0  0  0  0  0
   -1.5009    0.4494   -1.3870 H   0  0  0  0  0  0  0  0  0  0  0  0
   -3.3864    1.0816   -1.1427 H   0  0  0  0  0  0  0  0  0  0  0  0
   -5.4635    2.0357   -0.7081 H   0  0  0  0  0  0  0  0  0  0  0  0
   -6.1637   -0.1352   -1.4756 H   0  0  0  0  0  0  0  0  0  0  0  0
   -6.0279   -0.8834    0.1182 H   0  0  0  0  0  0  0  0  0  0  0  0
   -7.9486    0.6248    0.9140 H   0  0  0  0  0  0  0  0  0  0  0  0
   -8.2949   -0.4562   -0.4385 H   0  0  0  0  0  0  0  0  0  0  0  0
   -8.9174    1.9182   -2.9159 H   0  0  0  0  0  0  0  0  0  0  0  0
   -6.5540    2.2249    2.9574 H   0  0  0  0  0  0  0  0  0  0  0  0
   -2.2298   -2.4559    1.6036 H   0  0  0  0  0  0  0  0  0  0  0  0
    0.0190   -3.4257    1.2456 H   0  0  0  0  0  0  0  0  0  0  0  0
    4.1461    0.0679   -2.3164 H   0  0  0  0  0  0  0  0  0  0  0  0
  1  2  1  0
  2  3  2  0
  3  4  1  0
  4  5  2  0
  4  6  1  0
  6  7  2  0
  7  8  1  0
  7  9  1  0
  9 10  1  0
 10 11  1  0
 11 12  1  0
 12 13  1  0
 13 14  1  0
 14 15  2  0
 15 16  1  0
 16 17  2  0
 17 18  1  0
 18 19  2  0
 18 20  1  0
 20 21  1  0
 21 22  1  0
 22 23  1  0
 23 24  1  0
 24 25  2  0
 24 26  1  0
 21 27  1  0
 27 28  2  0
 27 29  1  0
 17 30  1  0
 30 31  2  0
 11 32  1  0
  8  2  1  0
 31 14  1  0
 32  6  1  0
  1 33  1  0
  1 34  1  0
  8 35  1  0
  9 36  1  0
 10 37  1  0
 10 38  1  0
 11 39  1  1
 12 40  1  0
 12 41  1  0
 13 42  1  0
 15 43  1  0
 16 44  1  0
 20 45  1  0
 21 46  1  6
 22 47  1  0
 22 48  1  0
 23 49  1  0
 23 50  1  0
 26 51  1  0
 29 52  1  0
 30 53  1  0
 31 54  1  0
 32 55  1  0
M  END
$$$$

     RDKit          3D

 55 57  0  0  0  0  0  0  0  0999 V2000
    9.3640    1.5895    0.0828 N   0  0  0  0  0  0  0  0  0  0  0  0
    8.1397    0.8853    0.1512 C   0  0  0  0  0  0  0  0  0  0  0  0
    7.5325    0.8016    1.3648 N   0  0  0  0  0  0  0  0  0  0  0  0
    6.3680    0.1571    1.5676 C   0  0  0  0  0  0  0  0  0  0  0  0
    5.8186    0.0901    2.7118 O   0  0  0  0  0  0  0  0  0  0  0  0
    5.7564   -0.4505    0.4819 C   0  0  0  0  0  0  0  0  0  0  0  0
    6.3748   -0.3647   -0.7587 C   0  0  0  0  0  0  0  0  0  0  0  0
    7.5443    0.2961   -0.8947 N   0  0  0  0  0  0  0  0  0  0  0  0
    5.7173   -0.9901   -1.8330 N   0  0  0  0  0  0  0  0  0  0  0  0
    4.2894   -1.1872   -1.7907 C   0  0  0  0  0  0  0  0  0  0  0  0
    3.8383   -1.7628   -0.4910 C   0  0  2  0  0  0  0  0  0  0  0  0
    2.3535   -1.5612   -0.2826 C   0  0  0  0  0  0  0  0  0  0  0  0
    1.9860   -0.1678   -0.2652 N   0  0  0  0  0  0  0  0  0  0  0  0
    0.6371    0.2365   -0.0699 C   0  0  0  0  0  0  0  0  0  0  0  0
    0.2729    1.5713   -0.0285 C   0  0  0  0  0  0  0  0  0  0  0  0
   -1.0290    1.9659    0.1696 C   0  0  0  0  0  0  0  0  0  0  0  0
   -2.0564    1.0371    0.3413 C   0  0  0  0  0  0  0  0  0  0  0  0
   -3.4299    1.4762    0.5655 C   0  0  0  0  0  0  0  0  0  0  0  0
   -3.6838    2.6967    0.6542 O   0  0  0  0  0  0  0  0  0  0  0  0
   -4.4989    0.5543    0.6864 N   0  0  0  0  0  0  0  0  0  0  0  0
   -5.8273    1.0574    0.9101 C   0  0  1  0  0  0  0  0  0  0  0  0
   -6.8011    0.6059   -0.1548 C   0  0  0  0  0  0  0  0  0  0  0  0
   -6.8946   -0.9038   -0.2123 C   0  0  0  0  0  0  0  0  0  0  0  0
   -7.8559   -1.3260   -1.2544 C   0  0  0  0  0  0  0  0  0  0  0  0
   -9.0401   -0.8765   -1.1890 O   0  0  0  0  0  0  0  0  0  0  0  0
   -7.5584   -2.1806   -2.3042 O   0  0  0  0  0  0  0  0  0  0  0  0
   -6.3566    0.6219    2.2499 C   0  0  0  0  0  0  0  0  0  0  0  0
   -5.7035   -0.0944    3.0375 O   0  0  0  0  0  0  0  0  0  0  0  0
   -7.6227    1.0415    2.6050 O   0  0  0  0  0  0  0  0  0  0  0  0
   -1.6963   -0.2906    0.2997 C   0  0  0  0  0  0  0  0  0  0  0  0
   -0.3625   -0.6925    0.0957 C   0  0  0  0  0  0  0  0  0  0  0  0
    4.5281   -1.1467    0.6096 N   0  0  0  0  0  0  0  0  0  0  0  0
   10.1809    1.1840    0.6311 H   0  0  0  0  0  0  0  0  0  0  0  0
    9.4817    2.4735   -0.4793 H   0  0  0  0  0  0  0  0  0  0  0  0
    7.9891    0.3465   -1.8327 H   0  0  0  0  0  0  0  0  0  0  0  0
    6.2723   -1.3032   -2.6534 H   0  0  0  0  0  0  0  0  0  0  0  0
    3.8476   -0.1643   -1.8978 H   0  0  0  0  0  0  0  0  0  0  0  0
    3.9439   -1.7975   -2.6615 H   0  0  0  0  0  0  0  0  0  0  0  0
    3.9849   -2.8709   -0.4692 H   0  0  0  0  0  0  0  0  0  0  0  0
    2.0430   -2.0556    0.6635 H   0  0  0  0  0  0  0  0  0  0  0  0
    1.8156   -2.0592   -1.1257 H   0  0  0  0  0  0  0  0  0  0  0  0
    2.7313    0.5436   -0.3924 H   0  0  0  0  0  0  0  0  0  0  0  0
    1.0981    2.2874   -0.1638 H   0  0  0  0  0  0  0  0  0  0  0  0
   -1.2984    3.0112    0.1984 H   0  0  0  0  0  0  0  0  0  0  0  0
   -4.3636   -0.4745    0.6199 H   0  0  0  0  0  0  0  0  0  0  0  0
   -5.8664    2.1655    0.9387 H   0  0  0  0  0  0  0  0  0  0  0  0
   -7.7948    1.0150    0.0782 H   0  0  0  0  0  0  0  0  0  0  0  0
   -6.5109    0.9676   -1.1602 H   0  0  0  0  0  0  0  0  0  0  0  0
   -5.9076   -1.3430   -0.4748 H   0  0  0  0  0  0  0  0  0  0  0  0
   -7.1681   -1.3434    0.7618 H   0  0  0  0  0  0  0  0  0  0  0  0
   -8.0523   -2.1781   -3.2040 H   0  0  0  0  0  0  0  0  0  0  0  0
   -8.0728    0.8175    3.4764 H   0  0  0  0  0  0  0  0  0  0  0  0
   -2.4659   -1.0552    0.4255 H   0  0  0  0  0  0  0  0  0  0  0  0
   -0.1315   -1.7544    0.0684 H   0  0  0  0  0  0  0  0  0  0  0  0
    4.1400   -1.1834    1.5977 H   0  0  0  0  0  0  0  0  0  0  0  0
  1  2  1  0
  2  3  2  0
  3  4  1  0
  4  5  2  0
  4  6  1  0
  6  7  2  0
  7  8  1  0
  7  9  1  0
  9 10  1  0
 10 11  1  0
 11 12  1  0
 12 13  1  0
 13 14  1  0
 14 15  2  0
 15 16  1  0
 16 17  2  0
 17 18  1  0
 18 19  2  0
 18 20  1  0
 20 21  1  0
 21 22  1  0
 22 23  1  0
 23 24  1  0
 24 25  2  0
 24 26  1  0
 21 27  1  0
 27 28  2  0
 27 29  1  0
 17 30  1  0
 30 31  2  0
 11 32  1  0
  8  2  1  0
 31 14  1  0
 32  6  1  0
  1 33  1  0
  1 34  1  0
  8 35  1  0
  9 36  1  0
 10 37  1  0
 10 38  1  0
 11 39  1  6
 12 40  1  0
 12 41  1  0
 13 42  1  0
 15 43  1  0
 16 44  1  0
 20 45  1  0
 21 46  1  1
 22 47  1  0
 22 48  1  0
 23 49  1  0
 23 50  1  0
 26 51  1  0
 29 52  1  0
 30 53  1  0
 31 54  1  0
 32 55  1  0
M  END
$$$$

     RDKit          3D

 55 57  0  0  0  0  0  0  0  0999 V2000
   -9.9286   -0.3462    0.7667 N   0  0  0  0  0  0  0  0  0  0  0  0
   -8.5698    0.0120    0.6205 C   0  0  0  0  0  0  0  0  0  0  0  0
   -7.9786    0.8142    1.5230 N   0  0  0  0  0  0  0  0  0  0  0  0
   -6.6787    1.1340    1.3498 C   0  0  0  0  0  0  0  0  0  0  0  0
   -6.0506    1.8736    2.1403 O   0  0  0  0  0  0  0  0  0  0  0  0
   -5.9670    0.6404    0.2561 C   0  0  0  0  0  0  0  0  0  0  0  0
   -6.6101   -0.1793   -0.6468 C   0  0  0  0  0  0  0  0  0  0  0  0
   -7.9163   -0.4878   -0.4537 N   0  0  0  0  0  0  0  0  0  0  0  0
   -5.8744   -0.6646   -1.7392 N   0  0  0  0  0  0  0  0  0  0  0  0
   -4.4200   -0.6987   -1.5949 C   0  0  0  0  0  0  0  0  0  0  0  0
   -3.9989    0.7012   -1.2142 C   0  0  2  0  0  0  0  0  0  0  0  0
   -2.4927    0.8004   -1.0659 C   0  0  0  0  0  0  0  0  0  0  0  0
   -2.0426   -0.0983   -0.0380 N   0  0  0  0  0  0  0  0  0  0  0  0
   -0.6745   -0.2038    0.2694 C   0  0  0  0  0  0  0  0  0  0  0  0
   -0.2291   -1.0396    1.2722 C   0  0  0  0  0  0  0  0  0  0  0  0
    1.1245   -1.1321    1.5597 C   0  0  0  0  0  0  0  0  0  0  0  0
    2.0434   -0.3927    0.8500 C   0  0  0  0  0  0  0  0  0  0  0  0
    3.4549   -0.4864    1.1534 C   0  0  0  0  0  0  0  0  0  0  0  0
    3.8261   -1.1435    2.1894 O   0  0  0  0  0  0  0  0  0  0  0  0
    4.4584    0.1113    0.3635 N   0  0  0  0  0  0  0  0  0  0  0  0
    5.8979   -0.0195    0.7291 C   0  0  1  0  0  0  0  0  0  0  0  0
    6.4710   -0.9059   -0.3096 C   0  0  0  0  0  0  0  0  0  0  0  0
    7.8991   -1.2621   -0.2680 C   0  0  0  0  0  0  0  0  0  0  0  0
    8.8867   -0.1945   -0.4226 C   0  0  0  0  0  0  0  0  0  0  0  0
    9.9560   -0.0810    0.2592 O   0  0  0  0  0  0  0  0  0  0  0  0
    8.6853    0.8094   -1.3906 O   0  0  0  0  0  0  0  0  0  0  0  0
    6.4281    1.3098    0.9083 C   0  0  0  0  0  0  0  0  0  0  0  0
    5.7139    2.3390    0.6509 O   0  0  0  0  0  0  0  0  0  0  0  0
    7.6988    1.5785    1.3597 O   0  0  0  0  0  0  0  0  0  0  0  0
    1.6145    0.4426   -0.1500 C   0  0  0  0  0  0  0  0  0  0  0  0
    0.2462    0.5318   -0.4357 C   0  0  0  0  0  0  0  0  0  0  0  0
   -4.5986    0.9781    0.0770 N   0  0  0  0  0  0  0  0  0  0  0  0
  -10.6676    0.3594    0.6193 H   0  0  0  0  0  0  0  0  0  0  0  0
  -10.1703   -1.3164    1.0209 H   0  0  0  0  0  0  0  0  0  0  0  0
   -8.3659   -1.1109   -1.1590 H   0  0  0  0  0  0  0  0  0  0  0  0
   -6.3558   -0.9781   -2.5964 H   0  0  0  0  0  0  0  0  0  0  0  0
   -4.1242   -1.3880   -0.8030 H   0  0  0  0  0  0  0  0  0  0  0  0
   -3.9648   -1.0007   -2.5806 H   0  0  0  0  0  0  0  0  0  0  0  0
   -4.3821    1.4337   -1.9414 H   0  0  0  0  0  0  0  0  0  0  0  0
   -2.0818    0.4942   -2.0719 H   0  0  0  0  0  0  0  0  0  0  0  0
   -2.1733    1.8143   -0.8063 H   0  0  0  0  0  0  0  0  0  0  0  0
   -2.7274   -0.6720    0.4812 H   0  0  0  0  0  0  0  0  0  0  0  0
   -0.9767   -1.6058    1.8098 H   0  0  0  0  0  0  0  0  0  0  0  0
    1.4167   -1.7992    2.3518 H   0  0  0  0  0  0  0  0  0  0  0  0
    4.1896    0.6460   -0.4801 H   0  0  0  0  0  0  0  0  0  0  0  0
    5.9479   -0.5980    1.7027 H   0  0  0  0  0  0  0  0  0  0  0  0
    5.8856   -1.8843   -0.2281 H   0  0  0  0  0  0  0  0  0  0  0  0
    6.1480   -0.5110   -1.3111 H   0  0  0  0  0  0  0  0  0  0  0  0
    8.1718   -1.8407    0.6620 H   0  0  0  0  0  0  0  0  0  0  0  0
    8.0583   -2.0462   -1.0795 H   0  0  0  0  0  0  0  0  0  0  0  0
    9.4660    1.2680   -1.8321 H   0  0  0  0  0  0  0  0  0  0  0  0
    8.2861    2.3266    0.9582 H   0  0  0  0  0  0  0  0  0  0  0  0
    2.2469    1.0606   -0.7593 H   0  0  0  0  0  0  0  0  0  0  0  0
   -0.0998    1.2022   -1.2389 H   0  0  0  0  0  0  0  0  0  0  0  0
   -4.1012    1.4061    0.8829 H   0  0  0  0  0  0  0  0  0  0  0  0
  1  2  1  0
  2  3  2  0
  3  4  1  0
  4  5  2  0
  4  6  1  0
  6  7  2  0
  7  8  1  0
  7  9  1  0
  9 10  1  0
 10 11  1  0
 11 12  1  0
 12 13  1  0
 13 14  1  0
 14 15  2  0
 15 16  1  0
 16 17  2  0
 17 18  1  0
 18 19  2  0
 18 20  1  0
 20 21  1  0
 21 22  1  0
 22 23  1  0
 23 24  1  0
 24 25  2  0
 24 26  1  0
 21 27  1  0
 27 28  2  0
 27 29  1  0
 17 30  1  0
 30 31  2  0
 11 32  1  0
  8  2  1  0
 31 14  1  0
 32  6  1  0
  1 33  1  0
  1 34  1  0
  8 35  1  0
  9 36  1  0
 10 37  1  0
 10 38  1  0
 11 39  1  6
 12 40  1  0
 12 41  1  0
 13 42  1  0
 15 43  1  0
 16 44  1  0
 20 45  1  0
 21 46  1  1
 22 47  1  0
 22 48  1  0
 23 49  1  0
 23 50  1  0
 26 51  1  0
 29 52  1  0
 30 53  1  0
 31 54  1  0
 32 55  1  0
M  END
$$$$

     RDKit          3D

 55 57  0  0  0  0  0  0  0  0999 V2000
   -9.9780   -1.5648    0.0433 N   0  0  0  0  0  0  0  0  0  0  0  0
   -8.6350   -1.1253    0.1667 C   0  0  0  0  0  0  0  0  0  0  0  0
   -8.0553   -1.1896    1.3851 N   0  0  0  0  0  0  0  0  0  0  0  0
   -6.7739   -0.7652    1.4804 C   0  0  0  0  0  0  0  0  0  0  0  0
   -6.1860   -0.8045    2.5971 O   0  0  0  0  0  0  0  0  0  0  0  0
   -6.0769   -0.2873    0.4000 C   0  0  0  0  0  0  0  0  0  0  0  0
   -6.7298   -0.2481   -0.8197 C   0  0  0  0  0  0  0  0  0  0  0  0
   -8.0056   -0.6694   -0.9204 N   0  0  0  0  0  0  0  0  0  0  0  0
   -6.0007    0.2460   -1.9245 N   0  0  0  0  0  0  0  0  0  0  0  0
   -4.5405    0.3862   -1.8486 C   0  0  0  0  0  0  0  0  0  0  0  0
   -4.2576    1.0575   -0.5214 C   0  0  2  0  0  0  0  0  0  0  0  0
   -2.8216    1.4490   -0.3700 C   0  0  0  0  0  0  0  0  0  0  0  0
   -1.9230    0.3168   -0.4469 N   0  0  0  0  0  0  0  0  0  0  0  0
   -0.5297    0.5129   -0.3283 C   0  0  0  0  0  0  0  0  0  0  0  0
    0.3107   -0.5652   -0.3901 C   0  0  0  0  0  0  0  0  0  0  0  0
    1.6918   -0.3876   -0.2753 C   0  0  0  0  0  0  0  0  0  0  0  0
    2.2550    0.8575   -0.0985 C   0  0  0  0  0  0  0  0  0  0  0  0
    3.6998    1.0457    0.0219 C   0  0  0  0  0  0  0  0  0  0  0  0
    4.1389    2.2338    0.1483 O   0  0  0  0  0  0  0  0  0  0  0  0
    4.6178   -0.0084    0.0052 N   0  0  0  0  0  0  0  0  0  0  0  0
    6.0786    0.2740    0.1330 C   0  0  1  0  0  0  0  0  0  0  0  0
    6.4596   -0.3802    1.4038 C   0  0  0  0  0  0  0  0  0  0  0  0
    7.8671   -0.2889    1.8183 C   0  0  0  0  0  0  0  0  0  0  0  0
    8.8255   -0.9820    0.9448 C   0  0  0  0  0  0  0  0  0  0  0  0
    9.9754   -0.5475    0.6683 O   0  0  0  0  0  0  0  0  0  0  0  0
    8.4270   -2.1993    0.3967 O   0  0  0  0  0  0  0  0  0  0  0  0
    6.6668   -0.2061   -1.1150 C   0  0  0  0  0  0  0  0  0  0  0  0
    6.0123   -0.9085   -1.9517 O   0  0  0  0  0  0  0  0  0  0  0  0
    7.9621    0.0858   -1.4532 O   0  0  0  0  0  0  0  0  0  0  0  0
    1.4014    1.9379   -0.0375 C   0  0  0  0  0  0  0  0  0  0  0  0
    0.0166    1.7667   -0.1518 C   0  0  0  0  0  0  0  0  0  0  0  0
   -4.7162    0.1619    0.5112 N   0  0  0  0  0  0  0  0  0  0  0  0
  -10.7502   -0.8858    0.0859 H   0  0  0  0  0  0  0  0  0  0  0  0
  -10.1521   -2.5768   -0.0891 H   0  0  0  0  0  0  0  0  0  0  0  0
   -8.4891   -0.6308   -1.8664 H   0  0  0  0  0  0  0  0  0  0  0  0
   -6.4978    0.5127   -2.7984 H   0  0  0  0  0  0  0  0  0  0  0  0
   -4.1664    0.9696   -2.7001 H   0  0  0  0  0  0  0  0  0  0  0  0
   -4.1017   -0.6374   -1.8897 H   0  0  0  0  0  0  0  0  0  0  0  0
   -4.8684    1.9802   -0.4669 H   0  0  0  0  0  0  0  0  0  0  0  0
   -2.5761    2.1337   -1.2113 H   0  0  0  0  0  0  0  0  0  0  0  0
   -2.7064    2.0086    0.5660 H   0  0  0  0  0  0  0  0  0  0  0  0
   -2.2888   -0.6455   -0.5894 H   0  0  0  0  0  0  0  0  0  0  0  0
   -0.0637   -1.5617   -0.5261 H   0  0  0  0  0  0  0  0  0  0  0  0
    2.3057   -1.2772   -0.3315 H   0  0  0  0  0  0  0  0  0  0  0  0
    4.3007   -0.9839   -0.0947 H   0  0  0  0  0  0  0  0  0  0  0  0
    6.1828    1.3911    0.2026 H   0  0  0  0  0  0  0  0  0  0  0  0
    5.8417    0.0244    2.2708 H   0  0  0  0  0  0  0  0  0  0  0  0
    6.1811   -1.4798    1.3630 H   0  0  0  0  0  0  0  0  0  0  0  0
    8.1577    0.7951    1.9069 H   0  0  0  0  0  0  0  0  0  0  0  0
    7.9969   -0.7137    2.8627 H   0  0  0  0  0  0  0  0  0  0  0  0
    9.0903   -2.9303    0.1592 H   0  0  0  0  0  0  0  0  0  0  0  0
    8.3761   -0.0832   -2.3590 H   0  0  0  0  0  0  0  0  0  0  0  0
    1.8398    2.9272    0.1021 H   0  0  0  0  0  0  0  0  0  0  0  0
   -0.6123    2.6430   -0.0977 H   0  0  0  0  0  0  0  0  0  0  0  0
   -4.1765   -0.1833    1.3083 H   0  0  0  0  0  0  0  0  0  0  0  0
  1  2  1  0
  2  3  2  0
  3  4  1  0
  4  5  2  0
  4  6  1  0
  6  7  2  0
  7  8  1  0
  7  9  1  0
  9 10  1  0
 10 11  1  0
 11 12  1  0
 12 13  1  0
 13 14  1  0
 14 15  2  0
 15 16  1  0
 16 17  2  0
 17 18  1  0
 18 19  2  0
 18 20  1  0
 20 21  1  0
 21 22  1  0
 22 23  1  0
 23 24  1  0
 24 25  2  0
 24 26  1  0
 21 27  1  0
 27 28  2  0
 27 29  1  0
 17 30  1  0
 30 31  2  0
 11 32  1  0
  8  2  1  0
 31 14  1  0
 32  6  1  0
  1 33  1  0
  1 34  1  0
  8 35  1  0
  9 36  1  0
 10 37  1  0
 10 38  1  0
 11 39  1  6
 12 40  1  0
 12 41  1  0
 13 42  1  0
 15 43  1  0
 16 44  1  0
 20 45  1  0
 21 46  1  1
 22 47  1  0
 22 48  1  0
 23 49  1  0
 23 50  1  0
 26 51  1  0
 29 52  1  0
 30 53  1  0
 31 54  1  0
 32 55  1  0
M  END
$$$$

     RDKit          3D

 55 57  0  0  0  0  0  0  0  0999 V2000
    9.6652   -2.2570   -0.2012 N   0  0  0  0  0  0  0  0  0  0  0  0
    8.3735   -1.6972   -0.3933 C   0  0  0  0  0  0  0  0  0  0  0  0
    7.5545   -2.2212   -1.3440 N   0  0  0  0  0  0  0  0  0  0  0  0
    6.3115   -1.7321   -1.5759 C   0  0  0  0  0  0  0  0  0  0  0  0
    5.5474   -2.2084   -2.4502 O   0  0  0  0  0  0  0  0  0  0  0  0
    5.8554   -0.6844   -0.8421 C   0  0  0  0  0  0  0  0  0  0  0  0
    6.6765   -0.1437    0.1253 C   0  0  0  0  0  0  0  0  0  0  0  0
    7.9072   -0.6604    0.3240 N   0  0  0  0  0  0  0  0  0  0  0  0
    6.1536    0.9510    0.8688 N   0  0  0  0  0  0  0  0  0  0  0  0
    5.2376    1.9163    0.3132 C   0  0  0  0  0  0  0  0  0  0  0  0
    4.2626    1.2744   -0.6158 C   0  0  2  0  0  0  0  0  0  0  0  0
    2.9009    1.2862    0.0674 C   0  0  0  0  0  0  0  0  0  0  0  0
    1.9412    0.6970   -0.8299 N   0  0  0  0  0  0  0  0  0  0  0  0
    0.6077    0.5740   -0.3579 C   0  0  0  0  0  0  0  0  0  0  0  0
   -0.3287    0.0171   -1.2149 C   0  0  0  0  0  0  0  0  0  0  0  0
   -1.6401   -0.1239   -0.8184 C   0  0  0  0  0  0  0  0  0  0  0  0
   -2.0657    0.2810    0.4371 C   0  0  0  0  0  0  0  0  0  0  0  0
   -3.4876    0.1197    0.8090 C   0  0  0  0  0  0  0  0  0  0  0  0
   -3.7922    0.1639    2.0285 O   0  0  0  0  0  0  0  0  0  0  0  0
   -4.5004   -0.0776   -0.1303 N   0  0  0  0  0  0  0  0  0  0  0  0
   -5.9423   -0.2418    0.2479 C   0  0  1  0  0  0  0  0  0  0  0  0
   -6.7024    0.8828   -0.3345 C   0  0  0  0  0  0  0  0  0  0  0  0
   -8.1531    0.9298   -0.0642 C   0  0  0  0  0  0  0  0  0  0  0  0
   -9.0103   -0.1315   -0.5876 C   0  0  0  0  0  0  0  0  0  0  0  0
   -9.9053   -0.7024    0.1349 O   0  0  0  0  0  0  0  0  0  0  0  0
   -8.9509   -0.6258   -1.9077 O   0  0  0  0  0  0  0  0  0  0  0  0
   -6.2779   -1.5879   -0.2217 C   0  0  0  0  0  0  0  0  0  0  0  0
   -5.4440   -2.2109   -0.9723 O   0  0  0  0  0  0  0  0  0  0  0  0
   -7.4222   -2.3008    0.0601 O   0  0  0  0  0  0  0  0  0  0  0  0
   -1.1422    0.8294    1.2814 C   0  0  0  0  0  0  0  0  0  0  0  0
    0.1862    0.9721    0.8783 C   0  0  0  0  0  0  0  0  0  0  0  0
    4.5746   -0.0772   -0.9814 N   0  0  0  0  0  0  0  0  0  0  0  0
   10.5101   -1.6747   -0.3544 H   0  0  0  0  0  0  0  0  0  0  0  0
    9.7908   -3.2369    0.0898 H   0  0  0  0  0  0  0  0  0  0  0  0
    8.5083   -0.2319    1.0640 H   0  0  0  0  0  0  0  0  0  0  0  0
    6.4899    1.0173    1.8796 H   0  0  0  0  0  0  0  0  0  0  0  0
    5.8066    2.6923   -0.2893 H   0  0  0  0  0  0  0  0  0  0  0  0
    4.6996    2.4133    1.1493 H   0  0  0  0  0  0  0  0  0  0  0  0
    4.1979    1.8483   -1.5899 H   0  0  0  0  0  0  0  0  0  0  0  0
    2.9356    0.6637    1.0040 H   0  0  0  0  0  0  0  0  0  0  0  0
    2.6043    2.3033    0.3981 H   0  0  0  0  0  0  0  0  0  0  0  0
    2.2283    0.3924   -1.7805 H   0  0  0  0  0  0  0  0  0  0  0  0
    0.0081   -0.3056   -2.2102 H   0  0  0  0  0  0  0  0  0  0  0  0
   -2.3484   -0.5582   -1.4889 H   0  0  0  0  0  0  0  0  0  0  0  0
   -4.2909   -0.1168   -1.1399 H   0  0  0  0  0  0  0  0  0  0  0  0
   -6.0380   -0.1967    1.3526 H   0  0  0  0  0  0  0  0  0  0  0  0
   -6.5773    0.8093   -1.4627 H   0  0  0  0  0  0  0  0  0  0  0  0
   -6.2309    1.8840   -0.0805 H   0  0  0  0  0  0  0  0  0  0  0  0
   -8.3031    0.9401    1.0696 H   0  0  0  0  0  0  0  0  0  0  0  0
   -8.6048    1.9013   -0.4597 H   0  0  0  0  0  0  0  0  0  0  0  0
   -9.8363   -0.7389   -2.4275 H   0  0  0  0  0  0  0  0  0  0  0  0
   -7.7905   -2.9072   -0.6831 H   0  0  0  0  0  0  0  0  0  0  0  0
   -1.4680    1.1475    2.2712 H   0  0  0  0  0  0  0  0  0  0  0  0
    0.9005    1.4183    1.5898 H   0  0  0  0  0  0  0  0  0  0  0  0
    3.8177   -0.6745   -1.3811 H   0  0  0  0  0  0  0  0  0  0  0  0
  1  2  1  0
  2  3  2  0
  3  4  1  0
  4  5  2  0
  4  6  1  0
  6  7  2  0
  7  8  1  0
  7  9  1  0
  9 10  1  0
 10 11  1  0
 11 12  1  0
 12 13  1  0
 13 14  1  0
 14 15  2  0
 15 16  1  0
 16 17  2  0
 17 18  1  0
 18 19  2  0
 18 20  1  0
 20 21  1  0
 21 22  1  0
 22 23  1  0
 23 24  1  0
 24 25  2  0
 24 26  1  0
 21 27  1  0
 27 28  2  0
 27 29  1  0
 17 30  1  0
 30 31  2  0
 11 32  1  0
  8  2  1  0
 31 14  1  0
 32  6  1  0
  1 33  1  0
  1 34  1  0
  8 35  1  0
  9 36  1  0
 10 37  1  0
 10 38  1  0
 11 39  1  6
 12 40  1  0
 12 41  1  0
 13 42  1  0
 15 43  1  0
 16 44  1  0
 20 45  1  0
 21 46  1  1
 22 47  1  0
 22 48  1  0
 23 49  1  0
 23 50  1  0
 26 51  1  0
 29 52  1  0
 30 53  1  0
 31 54  1  0
 32 55  1  0
M  END
$$$$

     RDKit          3D

 55 57  0  0  0  0  0  0  0  0999 V2000
    8.7454    2.8789   -0.7725 N   0  0  0  0  0  0  0  0  0  0  0  0
    7.6408    2.0676   -0.3598 C   0  0  0  0  0  0  0  0  0  0  0  0
    6.9558    2.4933    0.7244 N   0  0  0  0  0  0  0  0  0  0  0  0
    5.9108    1.7808    1.1621 C   0  0  0  0  0  0  0  0  0  0  0  0
    5.2529    2.1499    2.1680 O   0  0  0  0  0  0  0  0  0  0  0  0
    5.5775    0.6282    0.4749 C   0  0  0  0  0  0  0  0  0  0  0  0
    6.2714    0.1997   -0.6205 C   0  0  0  0  0  0  0  0  0  0  0  0
    7.3110    0.9544   -1.0149 N   0  0  0  0  0  0  0  0  0  0  0  0
    5.8860   -0.9889   -1.2843 N   0  0  0  0  0  0  0  0  0  0  0  0
    5.1558   -1.9914   -0.5592 C   0  0  0  0  0  0  0  0  0  0  0  0
    4.2065   -1.4812    0.4684 C   0  0  2  0  0  0  0  0  0  0  0  0
    2.7948   -1.6814   -0.0268 C   0  0  0  0  0  0  0  0  0  0  0  0
    1.8128   -1.2052    0.9167 N   0  0  0  0  0  0  0  0  0  0  0  0
    0.4166   -1.2795    0.6691 C   0  0  0  0  0  0  0  0  0  0  0  0
   -0.4938   -0.6876    1.5448 C   0  0  0  0  0  0  0  0  0  0  0  0
   -1.8516   -0.7526    1.3226 C   0  0  0  0  0  0  0  0  0  0  0  0
   -2.3807   -1.4093    0.2188 C   0  0  0  0  0  0  0  0  0  0  0  0
   -3.8253   -1.4613   -0.0106 C   0  0  0  0  0  0  0  0  0  0  0  0
   -4.4084   -2.4871   -0.4439 O   0  0  0  0  0  0  0  0  0  0  0  0
   -4.6195   -0.3233    0.2576 N   0  0  0  0  0  0  0  0  0  0  0  0
   -6.0481   -0.3310    0.0514 C   0  0  1  0  0  0  0  0  0  0  0  0
   -6.7472    0.1644    1.2562 C   0  0  0  0  0  0  0  0  0  0  0  0
   -6.4370    1.5450    1.7088 C   0  0  0  0  0  0  0  0  0  0  0  0
   -6.7603    2.5737    0.7010 C   0  0  0  0  0  0  0  0  0  0  0  0
   -5.9097    3.0999   -0.0692 O   0  0  0  0  0  0  0  0  0  0  0  0
   -8.0813    3.0319    0.5466 O   0  0  0  0  0  0  0  0  0  0  0  0
   -6.4160    0.3527   -1.2233 C   0  0  0  0  0  0  0  0  0  0  0  0
   -5.5569    0.8217   -2.0265 O   0  0  0  0  0  0  0  0  0  0  0  0
   -7.7452    0.5135   -1.6026 O   0  0  0  0  0  0  0  0  0  0  0  0
   -1.4848   -1.9945   -0.6468 C   0  0  0  0  0  0  0  0  0  0  0  0
   -0.1239   -1.9274   -0.4214 C   0  0  0  0  0  0  0  0  0  0  0  0
    4.4568   -0.1502    0.9221 N   0  0  0  0  0  0  0  0  0  0  0  0
    9.6980    2.4752   -0.7344 H   0  0  0  0  0  0  0  0  0  0  0  0
    8.5186    3.8537   -1.0952 H   0  0  0  0  0  0  0  0  0  0  0  0
    7.8649    0.6662   -1.8420 H   0  0  0  0  0  0  0  0  0  0  0  0
    6.1502   -1.1006   -2.2898 H   0  0  0  0  0  0  0  0  0  0  0  0
    5.8674   -2.7425   -0.1105 H   0  0  0  0  0  0  0  0  0  0  0  0
    4.6000   -2.5837   -1.3437 H   0  0  0  0  0  0  0  0  0  0  0  0
    4.2868   -2.1554    1.3752 H   0  0  0  0  0  0  0  0  0  0  0  0
    2.5806   -2.7428   -0.2503 H   0  0  0  0  0  0  0  0  0  0  0  0
    2.6335   -1.0854   -0.9646 H   0  0  0  0  0  0  0  0  0  0  0  0
    2.1403   -0.7978    1.8092 H   0  0  0  0  0  0  0  0  0  0  0  0
   -0.1054   -0.1708    2.4121 H   0  0  0  0  0  0  0  0  0  0  0  0
   -2.5730   -0.3001    1.9911 H   0  0  0  0  0  0  0  0  0  0  0  0
   -4.2171    0.5915    0.6208 H   0  0  0  0  0  0  0  0  0  0  0  0
   -6.3090   -1.4166   -0.1521 H   0  0  0  0  0  0  0  0  0  0  0  0
   -6.5688   -0.5819    2.0855 H   0  0  0  0  0  0  0  0  0  0  0  0
   -7.8603    0.1130    1.0815 H   0  0  0  0  0  0  0  0  0  0  0  0
   -5.3779    1.6757    2.0307 H   0  0  0  0  0  0  0  0  0  0  0  0
   -7.0633    1.7668    2.6051 H   0  0  0  0  0  0  0  0  0  0  0  0
   -8.3276    3.5594   -0.2940 H   0  0  0  0  0  0  0  0  0  0  0  0
   -8.0021    0.5069   -2.6017 H   0  0  0  0  0  0  0  0  0  0  0  0
   -1.8413   -2.5282   -1.5350 H   0  0  0  0  0  0  0  0  0  0  0  0
    0.5876   -2.3904   -1.1086 H   0  0  0  0  0  0  0  0  0  0  0  0
    3.8127    0.2841    1.6013 H   0  0  0  0  0  0  0  0  0  0  0  0
  1  2  1  0
  2  3  2  0
  3  4  1  0
  4  5  2  0
  4  6  1  0
  6  7  2  0
  7  8  1  0
  7  9  1  0
  9 10  1  0
 10 11  1  0
 11 12  1  0
 12 13  1  0
 13 14  1  0
 14 15  2  0
 15 16  1  0
 16 17  2  0
 17 18  1  0
 18 19  2  0
 18 20  1  0
 20 21  1  0
 21 22  1  0
 22 23  1  0
 23 24  1  0
 24 25  2  0
 24 26  1  0
 21 27  1  0
 27 28  2  0
 27 29  1  0
 17 30  1  0
 30 31  2  0
 11 32  1  0
  8  2  1  0
 31 14  1  0
 32  6  1  0
  1 33  1  0
  1 34  1  0
  8 35  1  0
  9 36  1  0
 10 37  1  0
 10 38  1  0
 11 39  1  1
 12 40  1  0
 12 41  1  0
 13 42  1  0
 15 43  1  0
 16 44  1  0
 20 45  1  0
 21 46  1  6
 22 47  1  0
 22 48  1  0
 23 49  1  0
 23 50  1  0
 26 51  1  0
 29 52  1  0
 30 53  1  0
 31 54  1  0
 32 55  1  0
M  END
$$$$

     RDKit          3D

 55 57  0  0  0  0  0  0  0  0999 V2000
    9.0901    2.2845    1.0715 N   0  0  0  0  0  0  0  0  0  0  0  0
    7.8510    1.8385    0.5073 C   0  0  0  0  0  0  0  0  0  0  0  0
    7.4579    2.2548   -0.7098 N   0  0  0  0  0  0  0  0  0  0  0  0
    6.2862    1.8480   -1.2715 C   0  0  0  0  0  0  0  0  0  0  0  0
    5.9296    2.2500   -2.4209 O   0  0  0  0  0  0  0  0  0  0  0  0
    5.4652    0.9818   -0.5834 C   0  0  0  0  0  0  0  0  0  0  0  0
    5.8648    0.5566    0.6576 C   0  0  0  0  0  0  0  0  0  0  0  0
    7.0425    0.9929    1.1711 N   0  0  0  0  0  0  0  0  0  0  0  0
    5.0164   -0.3319    1.3575 N   0  0  0  0  0  0  0  0  0  0  0  0
    3.5955   -0.4376    1.1080 C   0  0  0  0  0  0  0  0  0  0  0  0
    3.2130   -0.1644   -0.3266 C   0  0  2  0  0  0  0  0  0  0  0  0
    2.8468   -1.5127   -0.9254 C   0  0  0  0  0  0  0  0  0  0  0  0
    1.7393   -2.0406   -0.1646 N   0  0  0  0  0  0  0  0  0  0  0  0
    0.4574   -1.4585   -0.2072 C   0  0  0  0  0  0  0  0  0  0  0  0
    0.1230   -0.5308   -1.1510 C   0  0  0  0  0  0  0  0  0  0  0  0
   -1.1358    0.0655   -1.1975 C   0  0  0  0  0  0  0  0  0  0  0  0
   -2.0684   -0.2989   -0.2569 C   0  0  0  0  0  0  0  0  0  0  0  0
   -3.3833    0.2971   -0.2757 C   0  0  0  0  0  0  0  0  0  0  0  0
   -3.6813    1.0797   -1.2437 O   0  0  0  0  0  0  0  0  0  0  0  0
   -4.3702    0.0696    0.7152 N   0  0  0  0  0  0  0  0  0  0  0  0
   -5.6847    0.7160    0.6210 C   0  0  1  0  0  0  0  0  0  0  0  0
   -6.7490   -0.3681    0.6041 C   0  0  0  0  0  0  0  0  0  0  0  0
   -6.6151   -1.3179   -0.5433 C   0  0  0  0  0  0  0  0  0  0  0  0
   -6.7200   -0.7098   -1.8740 C   0  0  0  0  0  0  0  0  0  0  0  0
   -6.9284    0.4981   -2.0440 O   0  0  0  0  0  0  0  0  0  0  0  0
   -6.5858   -1.4883   -3.0257 O   0  0  0  0  0  0  0  0  0  0  0  0
   -5.8784    1.5174    1.8363 C   0  0  0  0  0  0  0  0  0  0  0  0
   -5.0032    1.5572    2.7190 O   0  0  0  0  0  0  0  0  0  0  0  0
   -7.0457    2.2331    1.9977 O   0  0  0  0  0  0  0  0  0  0  0  0
   -1.7458   -1.2277    0.6935 C   0  0  0  0  0  0  0  0  0  0  0  0
   -0.4887   -1.8099    0.7245 C   0  0  0  0  0  0  0  0  0  0  0  0
    4.2297    0.5035   -1.0850 N   0  0  0  0  0  0  0  0  0  0  0  0
    9.8425    2.5978    0.4524 H   0  0  0  0  0  0  0  0  0  0  0  0
    9.2556    2.3020    2.1015 H   0  0  0  0  0  0  0  0  0  0  0  0
    7.3141    0.6497    2.1153 H   0  0  0  0  0  0  0  0  0  0  0  0
    5.4225   -0.9456    2.0921 H   0  0  0  0  0  0  0  0  0  0  0  0
    3.1166    0.3216    1.7948 H   0  0  0  0  0  0  0  0  0  0  0  0
    3.2277   -1.4106    1.4575 H   0  0  0  0  0  0  0  0  0  0  0  0
    2.3316    0.5032   -0.3076 H   0  0  0  0  0  0  0  0  0  0  0  0
    3.6869   -2.2194   -0.8549 H   0  0  0  0  0  0  0  0  0  0  0  0
    2.5729   -1.4187   -1.9962 H   0  0  0  0  0  0  0  0  0  0  0  0
    1.8953   -2.8952    0.4470 H   0  0  0  0  0  0  0  0  0  0  0  0
    0.8027   -0.2129   -1.9193 H   0  0  0  0  0  0  0  0  0  0  0  0
   -1.3916    0.7940   -1.9416 H   0  0  0  0  0  0  0  0  0  0  0  0
   -4.1370   -0.5634    1.5065 H   0  0  0  0  0  0  0  0  0  0  0  0
   -5.6856    1.3259   -0.2899 H   0  0  0  0  0  0  0  0  0  0  0  0
   -6.6317   -0.9774    1.5424 H   0  0  0  0  0  0  0  0  0  0  0  0
   -7.7586    0.0780    0.6504 H   0  0  0  0  0  0  0  0  0  0  0  0
   -7.4162   -2.0962   -0.4821 H   0  0  0  0  0  0  0  0  0  0  0  0
   -5.6511   -1.9001   -0.4564 H   0  0  0  0  0  0  0  0  0  0  0  0
   -7.0504   -1.1835   -3.8653 H   0  0  0  0  0  0  0  0  0  0  0  0
   -7.2252    2.8602    2.7664 H   0  0  0  0  0  0  0  0  0  0  0  0
   -2.4338   -1.5586    1.4598 H   0  0  0  0  0  0  0  0  0  0  0  0
   -0.2529   -2.5483    1.4910 H   0  0  0  0  0  0  0  0  0  0  0  0
    4.0411    0.6502   -2.1001 H   0  0  0  0  0  0  0  0  0  0  0  0
  1  2  1  0
  2  3  2  0
  3  4  1  0
  4  5  2  0
  4  6  1  0
  6  7  2  0
  7  8  1  0
  7  9  1  0
  9 10  1  0
 10 11  1  0
 11 12  1  0
 12 13  1  0
 13 14  1  0
 14 15  2  0
 15 16  1  0
 16 17  2  0
 17 18  1  0
 18 19  2  0
 18 20  1  0
 20 21  1  0
 21 22  1  0
 22 23  1  0
 23 24  1  0
 24 25  2  0
 24 26  1  0
 21 27  1  0
 27 28  2  0
 27 29  1  0
 17 30  1  0
 30 31  2  0
 11 32  1  0
  8  2  1  0
 31 14  1  0
 32  6  1  0
  1 33  1  0
  1 34  1  0
  8 35  1  0
  9 36  1  0
 10 37  1  0
 10 38  1  0
 11 39  1  1
 12 40  1  0
 12 41  1  0
 13 42  1  0
 15 43  1  0
 16 44  1  0
 20 45  1  0
 21 46  1  6
 22 47  1  0
 22 48  1  0
 23 49  1  0
 23 50  1  0
 26 51  1  0
 29 52  1  0
 30 53  1  0
 31 54  1  0
 32 55  1  0
M  END
$$$$

     RDKit          3D

 55 57  0  0  0  0  0  0  0  0999 V2000
   -6.9788    3.9139   -0.1385 N   0  0  0  0  0  0  0  0  0  0  0  0
   -6.2495    2.7370    0.2049 C   0  0  0  0  0  0  0  0  0  0  0  0
   -5.6579    2.5896    1.4040 N   0  0  0  0  0  0  0  0  0  0  0  0
   -4.9767    1.4685    1.6991 C   0  0  0  0  0  0  0  0  0  0  0  0
   -4.4110    1.3115    2.8274 O   0  0  0  0  0  0  0  0  0  0  0  0
   -4.8446    0.4234    0.8120 C   0  0  0  0  0  0  0  0  0  0  0  0
   -5.4514    0.5802   -0.4108 C   0  0  0  0  0  0  0  0  0  0  0  0
   -6.1251    1.7125   -0.6759 N   0  0  0  0  0  0  0  0  0  0  0  0
   -5.3269   -0.4883   -1.3391 N   0  0  0  0  0  0  0  0  0  0  0  0
   -4.8776   -1.8133   -0.9412 C   0  0  0  0  0  0  0  0  0  0  0  0
   -3.6849   -1.6117   -0.0277 C   0  0  2  0  0  0  0  0  0  0  0  0
   -3.1345   -2.8927    0.4916 C   0  0  0  0  0  0  0  0  0  0  0  0
   -2.0012   -2.6349    1.3468 N   0  0  0  0  0  0  0  0  0  0  0  0
   -0.7419   -2.1316    0.8694 C   0  0  0  0  0  0  0  0  0  0  0  0
   -0.4618   -2.1145   -0.4686 C   0  0  0  0  0  0  0  0  0  0  0  0
    0.7410   -1.6149   -0.9061 C   0  0  0  0  0  0  0  0  0  0  0  0
    1.6765   -1.1254    0.0158 C   0  0  0  0  0  0  0  0  0  0  0  0
    2.9517   -0.5897   -0.4431 C   0  0  0  0  0  0  0  0  0  0  0  0
    3.1483   -0.3604   -1.6849 O   0  0  0  0  0  0  0  0  0  0  0  0
    4.0437   -0.2867    0.4012 N   0  0  0  0  0  0  0  0  0  0  0  0
    5.3060    0.2579   -0.1595 C   0  0  1  0  0  0  0  0  0  0  0  0
    5.5691    1.5227    0.6079 C   0  0  0  0  0  0  0  0  0  0  0  0
    6.8080    2.2458    0.1907 C   0  0  0  0  0  0  0  0  0  0  0  0
    6.7064    2.6484   -1.2287 C   0  0  0  0  0  0  0  0  0  0  0  0
    7.7054    3.1767   -1.8207 O   0  0  0  0  0  0  0  0  0  0  0  0
    5.5790    2.5044   -2.0221 O   0  0  0  0  0  0  0  0  0  0  0  0
    6.3782   -0.7236    0.1384 C   0  0  0  0  0  0  0  0  0  0  0  0
    6.0908   -1.7549    0.7875 O   0  0  0  0  0  0  0  0  0  0  0  0
    7.6842   -0.5476   -0.2730 O   0  0  0  0  0  0  0  0  0  0  0  0
    1.3702   -1.1549    1.3505 C   0  0  0  0  0  0  0  0  0  0  0  0
    0.1718   -1.6533    1.7751 C   0  0  0  0  0  0  0  0  0  0  0  0
   -4.1393   -0.7629    1.0865 N   0  0  0  0  0  0  0  0  0  0  0  0
   -6.7075    4.4712   -0.9712 H   0  0  0  0  0  0  0  0  0  0  0  0
   -7.7842    4.2325    0.4289 H   0  0  0  0  0  0  0  0  0  0  0  0
   -6.5843    1.8276   -1.6060 H   0  0  0  0  0  0  0  0  0  0  0  0
   -5.5716   -0.2973   -2.3410 H   0  0  0  0  0  0  0  0  0  0  0  0
   -4.6171   -2.3799   -1.8351 H   0  0  0  0  0  0  0  0  0  0  0  0
   -5.6469   -2.3489   -0.3508 H   0  0  0  0  0  0  0  0  0  0  0  0
   -2.9166   -1.0703   -0.5989 H   0  0  0  0  0  0  0  0  0  0  0  0
   -2.7975   -3.4868   -0.4029 H   0  0  0  0  0  0  0  0  0  0  0  0
   -3.9350   -3.4594    1.0365 H   0  0  0  0  0  0  0  0  0  0  0  0
   -2.0722   -2.8163    2.3707 H   0  0  0  0  0  0  0  0  0  0  0  0
   -1.1939   -2.5131   -1.2055 H   0  0  0  0  0  0  0  0  0  0  0  0
    0.9931   -1.5875   -1.9667 H   0  0  0  0  0  0  0  0  0  0  0  0
    3.9438   -0.4543    1.4209 H   0  0  0  0  0  0  0  0  0  0  0  0
    5.1948    0.3970   -1.2349 H   0  0  0  0  0  0  0  0  0  0  0  0
    4.7230    2.2623    0.4768 H   0  0  0  0  0  0  0  0  0  0  0  0
    5.5634    1.3339    1.7193 H   0  0  0  0  0  0  0  0  0  0  0  0
    6.8646    3.2051    0.7671 H   0  0  0  0  0  0  0  0  0  0  0  0
    7.7408    1.6543    0.3454 H   0  0  0  0  0  0  0  0  0  0  0  0
    5.4613    2.9391   -2.9180 H   0  0  0  0  0  0  0  0  0  0  0  0
    8.3953   -1.2634   -0.2909 H   0  0  0  0  0  0  0  0  0  0  0  0
    2.0747   -0.7812    2.0923 H   0  0  0  0  0  0  0  0  0  0  0  0
   -0.0512   -1.6651    2.8622 H   0  0  0  0  0  0  0  0  0  0  0  0
   -3.9445   -1.0308    2.0717 H   0  0  0  0  0  0  0  0  0  0  0  0
  1  2  1  0
  2  3  2  0
  3  4  1  0
  4  5  2  0
  4  6  1  0
  6  7  2  0
  7  8  1  0
  7  9  1  0
  9 10  1  0
 10 11  1  0
 11 12  1  0
 12 13  1  0
 13 14  1  0
 14 15  2  0
 15 16  1  0
 16 17  2  0
 17 18  1  0
 18 19  2  0
 18 20  1  0
 20 21  1  0
 21 22  1  0
 22 23  1  0
 23 24  1  0
 24 25  2  0
 24 26  1  0
 21 27  1  0
 27 28  2  0
 27 29  1  0
 17 30  1  0
 30 31  2  0
 11 32  1  0
  8  2  1  0
 31 14  1  0
 32  6  1  0
  1 33  1  0
  1 34  1  0
  8 35  1  0
  9 36  1  0
 10 37  1  0
 10 38  1  0
 11 39  1  6
 12 40  1  0
 12 41  1  0
 13 42  1  0
 15 43  1  0
 16 44  1  0
 20 45  1  0
 21 46  1  6
 22 47  1  0
 22 48  1  0
 23 49  1  0
 23 50  1  0
 26 51  1  0
 29 52  1  0
 30 53  1  0
 31 54  1  0
 32 55  1  0
M  END
$$$$

     RDKit          3D

 55 57  0  0  0  0  0  0  0  0999 V2000
    9.6409    0.5293   -0.0847 N   0  0  0  0  0  0  0  0  0  0  0  0
    8.2579    0.7718    0.1261 C   0  0  0  0  0  0  0  0  0  0  0  0
    7.7409    1.9967   -0.0120 N   0  0  0  0  0  0  0  0  0  0  0  0
    6.4344    2.2473    0.1833 C   0  0  0  0  0  0  0  0  0  0  0  0
    5.9253    3.3725    0.0628 O   0  0  0  0  0  0  0  0  0  0  0  0
    5.5962    1.1893    0.5416 C   0  0  0  0  0  0  0  0  0  0  0  0
    6.1207   -0.0670    0.6842 C   0  0  0  0  0  0  0  0  0  0  0  0
    7.4403   -0.2424    0.4721 N   0  0  0  0  0  0  0  0  0  0  0  0
    5.2518   -1.1283    1.0488 N   0  0  0  0  0  0  0  0  0  0  0  0
    3.8362   -1.0016    1.2108 C   0  0  0  0  0  0  0  0  0  0  0  0
    3.2834    0.2877    0.6308 C   0  0  2  0  0  0  0  0  0  0  0  0
    3.0850    0.0678   -0.8573 C   0  0  0  0  0  0  0  0  0  0  0  0
    2.1731   -0.9915   -1.1584 N   0  0  0  0  0  0  0  0  0  0  0  0
    0.7891   -0.9114   -0.8694 C   0  0  0  0  0  0  0  0  0  0  0  0
    0.1784    0.2422   -0.4875 C   0  0  0  0  0  0  0  0  0  0  0  0
   -1.1723    0.2854   -0.2001 C   0  0  0  0  0  0  0  0  0  0  0  0
   -1.9789   -0.8204   -0.2804 C   0  0  0  0  0  0  0  0  0  0  0  0
   -3.4136   -0.8210    0.0145 C   0  0  0  0  0  0  0  0  0  0  0  0
   -4.0682   -1.9086   -0.1195 O   0  0  0  0  0  0  0  0  0  0  0  0
   -4.1229    0.3130    0.4404 N   0  0  0  0  0  0  0  0  0  0  0  0
   -5.5395    0.3662    0.7510 C   0  0  1  0  0  0  0  0  0  0  0  0
   -6.2777    0.1886   -0.5437 C   0  0  0  0  0  0  0  0  0  0  0  0
   -7.7611    0.2105   -0.4577 C   0  0  0  0  0  0  0  0  0  0  0  0
   -8.2219    1.5092    0.0606 C   0  0  0  0  0  0  0  0  0  0  0  0
   -7.4832    2.4755    0.3425 O   0  0  0  0  0  0  0  0  0  0  0  0
   -9.5928    1.6818    0.2550 O   0  0  0  0  0  0  0  0  0  0  0  0
   -5.8526   -0.6939    1.7502 C   0  0  0  0  0  0  0  0  0  0  0  0
   -4.9788   -1.4397    2.2203 O   0  0  0  0  0  0  0  0  0  0  0  0
   -7.1542   -0.8926    2.2031 O   0  0  0  0  0  0  0  0  0  0  0  0
   -1.3664   -1.9940   -0.6677 C   0  0  0  0  0  0  0  0  0  0  0  0
   -0.0199   -2.0490   -0.9567 C   0  0  0  0  0  0  0  0  0  0  0  0
    4.2196    1.3835    0.7610 N   0  0  0  0  0  0  0  0  0  0  0  0
   10.0047   -0.4415   -0.2182 H   0  0  0  0  0  0  0  0  0  0  0  0
   10.3369    1.2923   -0.1146 H   0  0  0  0  0  0  0  0  0  0  0  0
    7.8517   -1.1971    0.5784 H   0  0  0  0  0  0  0  0  0  0  0  0
    5.6814   -2.0595    1.2073 H   0  0  0  0  0  0  0  0  0  0  0  0
    3.5804   -1.0008    2.2863 H   0  0  0  0  0  0  0  0  0  0  0  0
    3.3247   -1.8728    0.7342 H   0  0  0  0  0  0  0  0  0  0  0  0
    2.3441    0.5025    1.1394 H   0  0  0  0  0  0  0  0  0  0  0  0
    2.6714    1.0454   -1.2452 H   0  0  0  0  0  0  0  0  0  0  0  0
    4.0590   -0.0396   -1.3757 H   0  0  0  0  0  0  0  0  0  0  0  0
    2.5334   -1.8607   -1.6089 H   0  0  0  0  0  0  0  0  0  0  0  0
    0.7182    1.1678   -0.4035 H   0  0  0  0  0  0  0  0  0  0  0  0
   -1.6124    1.2235    0.0994 H   0  0  0  0  0  0  0  0  0  0  0  0
   -3.5721    1.2139    0.5437 H   0  0  0  0  0  0  0  0  0  0  0  0
   -5.7490    1.3390    1.2650 H   0  0  0  0  0  0  0  0  0  0  0  0
   -5.8702    0.9322   -1.2653 H   0  0  0  0  0  0  0  0  0  0  0  0
   -5.9256   -0.8031   -0.9604 H   0  0  0  0  0  0  0  0  0  0  0  0
   -8.1733   -0.6318    0.1390 H   0  0  0  0  0  0  0  0  0  0  0  0
   -8.1668    0.1392   -1.5138 H   0  0  0  0  0  0  0  0  0  0  0  0
   -9.9307    2.3170    0.9954 H   0  0  0  0  0  0  0  0  0  0  0  0
   -7.4813   -1.8424    2.3512 H   0  0  0  0  0  0  0  0  0  0  0  0
   -1.9215   -2.9314   -0.7624 H   0  0  0  0  0  0  0  0  0  0  0  0
    0.4735   -2.9688   -1.2631 H   0  0  0  0  0  0  0  0  0  0  0  0
    3.8543    2.3198    1.0204 H   0  0  0  0  0  0  0  0  0  0  0  0
  1  2  1  0
  2  3  2  0
  3  4  1  0
  4  5  2  0
  4  6  1  0
  6  7  2  0
  7  8  1  0
  7  9  1  0
  9 10  1  0
 10 11  1  0
 11 12  1  0
 12 13  1  0
 13 14  1  0
 14 15  2  0
 15 16  1  0
 16 17  2  0
 17 18  1  0
 18 19  2  0
 18 20  1  0
 20 21  1  0
 21 22  1  0
 22 23  1  0
 23 24  1  0
 24 25  2  0
 24 26  1  0
 21 27  1  0
 27 28  2  0
 27 29  1  0
 17 30  1  0
 30 31  2  0
 11 32  1  0
  8  2  1  0
 31 14  1  0
 32  6  1  0
  1 33  1  0
  1 34  1  0
  8 35  1  0
  9 36  1  0
 10 37  1  0
 10 38  1  0
 11 39  1  1
 12 40  1  0
 12 41  1  0
 13 42  1  0
 15 43  1  0
 16 44  1  0
 20 45  1  0
 21 46  1  1
 22 47  1  0
 22 48  1  0
 23 49  1  0
 23 50  1  0
 26 51  1  0
 29 52  1  0
 30 53  1  0
 31 54  1  0
 32 55  1  0
M  END
$$$$

     RDKit          3D

 55 57  0  0  0  0  0  0  0  0999 V2000
   10.3338    1.0856   -0.4799 N   0  0  0  0  0  0  0  0  0  0  0  0
    8.9163    1.0331   -0.5589 C   0  0  0  0  0  0  0  0  0  0  0  0
    8.3179    1.7779   -1.5218 N   0  0  0  0  0  0  0  0  0  0  0  0
    6.9903    1.7823   -1.6605 C   0  0  0  0  0  0  0  0  0  0  0  0
    6.3922    2.4535   -2.5342 O   0  0  0  0  0  0  0  0  0  0  0  0
    6.2288    1.0056   -0.7954 C   0  0  0  0  0  0  0  0  0  0  0  0
    6.8325    0.2470    0.1848 C   0  0  0  0  0  0  0  0  0  0  0  0
    8.1708    0.2823    0.2763 N   0  0  0  0  0  0  0  0  0  0  0  0
    6.0443   -0.5440    1.0641 N   0  0  0  0  0  0  0  0  0  0  0  0
    4.5891   -0.5967    0.9761 C   0  0  0  0  0  0  0  0  0  0  0  0
    4.0467    0.6288    0.2762 C   0  0  2  0  0  0  0  0  0  0  0  0
    2.6059    0.4234   -0.0593 C   0  0  0  0  0  0  0  0  0  0  0  0
    1.8515    0.1975    1.1509 N   0  0  0  0  0  0  0  0  0  0  0  0
    0.4548   -0.0373    1.1287 C   0  0  0  0  0  0  0  0  0  0  0  0
   -0.2691   -0.2533    2.2760 C   0  0  0  0  0  0  0  0  0  0  0  0
   -1.6187   -0.4800    2.2438 C   0  0  0  0  0  0  0  0  0  0  0  0
   -2.2619   -0.4902    1.0225 C   0  0  0  0  0  0  0  0  0  0  0  0
   -3.6986   -0.7281    0.9501 C   0  0  0  0  0  0  0  0  0  0  0  0
   -4.3343   -0.8993    2.0279 O   0  0  0  0  0  0  0  0  0  0  0  0
   -4.4550   -0.7851   -0.2367 N   0  0  0  0  0  0  0  0  0  0  0  0
   -5.8943   -1.0298   -0.2028 C   0  0  1  0  0  0  0  0  0  0  0  0
   -6.6606    0.1319   -0.7432 C   0  0  0  0  0  0  0  0  0  0  0  0
   -8.1517   -0.0979   -0.7129 C   0  0  0  0  0  0  0  0  0  0  0  0
   -8.8834    1.0921   -1.2460 C   0  0  0  0  0  0  0  0  0  0  0  0
   -8.2839    2.1089   -1.6473 O   0  0  0  0  0  0  0  0  0  0  0  0
  -10.2621    1.0639   -1.2951 O   0  0  0  0  0  0  0  0  0  0  0  0
   -6.1556   -2.3190   -0.8687 C   0  0  0  0  0  0  0  0  0  0  0  0
   -5.1884   -2.9571   -1.3584 O   0  0  0  0  0  0  0  0  0  0  0  0
   -7.3959   -2.9120   -1.0099 O   0  0  0  0  0  0  0  0  0  0  0  0
   -1.5728   -0.2784   -0.1473 C   0  0  0  0  0  0  0  0  0  0  0  0
   -0.2024   -0.0513   -0.0758 C   0  0  0  0  0  0  0  0  0  0  0  0
    4.8180    0.9745   -0.9006 N   0  0  0  0  0  0  0  0  0  0  0  0
   10.8693    1.4521    0.3228 H   0  0  0  0  0  0  0  0  0  0  0  0
   10.8628    0.7271   -1.2930 H   0  0  0  0  0  0  0  0  0  0  0  0
    8.6718   -0.2839    1.0130 H   0  0  0  0  0  0  0  0  0  0  0  0
    6.4852   -1.1284    1.8206 H   0  0  0  0  0  0  0  0  0  0  0  0
    4.2566   -1.4880    0.3958 H   0  0  0  0  0  0  0  0  0  0  0  0
    4.1790   -0.6771    1.9872 H   0  0  0  0  0  0  0  0  0  0  0  0
    4.1523    1.4694    1.0060 H   0  0  0  0  0  0  0  0  0  0  0  0
    2.1881    1.3407   -0.5580 H   0  0  0  0  0  0  0  0  0  0  0  0
    2.4515   -0.4130   -0.7764 H   0  0  0  0  0  0  0  0  0  0  0  0
    2.3540    0.2102    2.0583 H   0  0  0  0  0  0  0  0  0  0  0  0
    0.2129   -0.2512    3.2592 H   0  0  0  0  0  0  0  0  0  0  0  0
   -2.2224   -0.6539    3.1241 H   0  0  0  0  0  0  0  0  0  0  0  0
   -3.9875   -0.6524   -1.1462 H   0  0  0  0  0  0  0  0  0  0  0  0
   -6.2002   -1.1460    0.8797 H   0  0  0  0  0  0  0  0  0  0  0  0
   -6.3202    0.4537   -1.7501 H   0  0  0  0  0  0  0  0  0  0  0  0
   -6.4940    1.0372   -0.0922 H   0  0  0  0  0  0  0  0  0  0  0  0
   -8.5126   -0.2918    0.3159 H   0  0  0  0  0  0  0  0  0  0  0  0
   -8.4895   -0.9432   -1.3473 H   0  0  0  0  0  0  0  0  0  0  0  0
  -10.8357    1.9150   -1.2742 H   0  0  0  0  0  0  0  0  0  0  0  0
   -7.5811   -3.5434   -1.8040 H   0  0  0  0  0  0  0  0  0  0  0  0
   -2.0251   -0.2756   -1.1272 H   0  0  0  0  0  0  0  0  0  0  0  0
    0.3203    0.1132   -1.0110 H   0  0  0  0  0  0  0  0  0  0  0  0
    4.3603    1.2003   -1.8201 H   0  0  0  0  0  0  0  0  0  0  0  0
  1  2  1  0
  2  3  2  0
  3  4  1  0
  4  5  2  0
  4  6  1  0
  6  7  2  0
  7  8  1  0
  7  9  1  0
  9 10  1  0
 10 11  1  0
 11 12  1  0
 12 13  1  0
 13 14  1  0
 14 15  2  0
 15 16  1  0
 16 17  2  0
 17 18  1  0
 18 19  2  0
 18 20  1  0
 20 21  1  0
 21 22  1  0
 22 23  1  0
 23 24  1  0
 24 25  2  0
 24 26  1  0
 21 27  1  0
 27 28  2  0
 27 29  1  0
 17 30  1  0
 30 31  2  0
 11 32  1  0
  8  2  1  0
 31 14  1  0
 32  6  1  0
  1 33  1  0
  1 34  1  0
  8 35  1  0
  9 36  1  0
 10 37  1  0
 10 38  1  0
 11 39  1  1
 12 40  1  0
 12 41  1  0
 13 42  1  0
 15 43  1  0
 16 44  1  0
 20 45  1  0
 21 46  1  1
 22 47  1  0
 22 48  1  0
 23 49  1  0
 23 50  1  0
 26 51  1  0
 29 52  1  0
 30 53  1  0
 31 54  1  0
 32 55  1  0
M  END
$$$$

     RDKit          3D

 55 57  0  0  0  0  0  0  0  0999 V2000
   -9.7731    1.1351    1.0633 N   0  0  0  0  0  0  0  0  0  0  0  0
   -8.4315    1.0599    0.5992 C   0  0  0  0  0  0  0  0  0  0  0  0
   -7.7436    2.2155    0.4486 N   0  0  0  0  0  0  0  0  0  0  0  0
   -6.4774    2.1588    0.0123 C   0  0  0  0  0  0  0  0  0  0  0  0
   -5.7833    3.1987   -0.1491 O   0  0  0  0  0  0  0  0  0  0  0  0
   -5.9232    0.9244   -0.2667 C   0  0  0  0  0  0  0  0  0  0  0  0
   -6.6215   -0.2476   -0.1138 C   0  0  0  0  0  0  0  0  0  0  0  0
   -7.9039   -0.1459    0.3314 N   0  0  0  0  0  0  0  0  0  0  0  0
   -6.0025   -1.4738   -0.4136 N   0  0  0  0  0  0  0  0  0  0  0  0
   -4.5558   -1.5161   -0.4712 C   0  0  0  0  0  0  0  0  0  0  0  0
   -4.1102   -0.3597   -1.3523 C   0  0  2  0  0  0  0  0  0  0  0  0
   -2.6001   -0.3519   -1.4777 C   0  0  0  0  0  0  0  0  0  0  0  0
   -1.9690   -0.2026   -0.1945 N   0  0  0  0  0  0  0  0  0  0  0  0
   -0.5612   -0.1727   -0.1049 C   0  0  0  0  0  0  0  0  0  0  0  0
    0.2271   -0.3178   -1.2312 C   0  0  0  0  0  0  0  0  0  0  0  0
    1.6182   -0.2883   -1.1833 C   0  0  0  0  0  0  0  0  0  0  0  0
    2.2482   -0.1092    0.0199 C   0  0  0  0  0  0  0  0  0  0  0  0
    3.7014   -0.0759    0.0691 C   0  0  0  0  0  0  0  0  0  0  0  0
    4.3916   -0.2806   -0.9855 O   0  0  0  0  0  0  0  0  0  0  0  0
    4.4515    0.1781    1.2500 N   0  0  0  0  0  0  0  0  0  0  0  0
    5.9354    0.1963    1.2053 C   0  0  1  0  0  0  0  0  0  0  0  0
    6.4009   -1.1899    1.0179 C   0  0  0  0  0  0  0  0  0  0  0  0
    7.8395   -1.4824    0.9114 C   0  0  0  0  0  0  0  0  0  0  0  0
    8.5487   -0.9372   -0.2642 C   0  0  0  0  0  0  0  0  0  0  0  0
    9.7603   -0.5814   -0.1704 O   0  0  0  0  0  0  0  0  0  0  0  0
    7.9401   -0.7944   -1.5013 O   0  0  0  0  0  0  0  0  0  0  0  0
    6.4287    1.2613    0.3684 C   0  0  0  0  0  0  0  0  0  0  0  0
    5.5735    1.9491   -0.2985 O   0  0  0  0  0  0  0  0  0  0  0  0
    7.7352    1.6609    0.1826 O   0  0  0  0  0  0  0  0  0  0  0  0
    1.4816    0.0358    1.1446 C   0  0  0  0  0  0  0  0  0  0  0  0
    0.0938    0.0074    1.1047 C   0  0  0  0  0  0  0  0  0  0  0  0
   -4.5844    0.8617   -0.7281 N   0  0  0  0  0  0  0  0  0  0  0  0
  -10.1074    0.3791    1.7023 H   0  0  0  0  0  0  0  0  0  0  0  0
  -10.3511    1.9363    0.7440 H   0  0  0  0  0  0  0  0  0  0  0  0
   -8.4303   -1.0241    0.4471 H   0  0  0  0  0  0  0  0  0  0  0  0
   -6.5896   -2.3085   -0.5842 H   0  0  0  0  0  0  0  0  0  0  0  0
   -4.0781   -1.4464    0.5125 H   0  0  0  0  0  0  0  0  0  0  0  0
   -4.2622   -2.4542   -1.0285 H   0  0  0  0  0  0  0  0  0  0  0  0
   -4.5590   -0.4615   -2.3539 H   0  0  0  0  0  0  0  0  0  0  0  0
   -2.3225    0.5071   -2.1273 H   0  0  0  0  0  0  0  0  0  0  0  0
   -2.3322   -1.3234   -1.9658 H   0  0  0  0  0  0  0  0  0  0  0  0
   -2.5445   -0.1168    0.6553 H   0  0  0  0  0  0  0  0  0  0  0  0
   -0.2608   -0.4621   -2.2011 H   0  0  0  0  0  0  0  0  0  0  0  0
    2.1461   -0.4115   -2.1225 H   0  0  0  0  0  0  0  0  0  0  0  0
    3.9272    0.3482    2.1331 H   0  0  0  0  0  0  0  0  0  0  0  0
    6.2111    0.4806    2.2784 H   0  0  0  0  0  0  0  0  0  0  0  0
    5.8957   -1.7044    0.1438 H   0  0  0  0  0  0  0  0  0  0  0  0
    5.9902   -1.7950    1.8954 H   0  0  0  0  0  0  0  0  0  0  0  0
    7.9352   -2.6095    0.8072 H   0  0  0  0  0  0  0  0  0  0  0  0
    8.4121   -1.2797    1.8538 H   0  0  0  0  0  0  0  0  0  0  0  0
    8.4370   -0.7518   -2.3757 H   0  0  0  0  0  0  0  0  0  0  0  0
    8.1143    1.9312   -0.7353 H   0  0  0  0  0  0  0  0  0  0  0  0
    1.9119    0.1802    2.1256 H   0  0  0  0  0  0  0  0  0  0  0  0
   -0.5109    0.1201    1.9800 H   0  0  0  0  0  0  0  0  0  0  0  0
   -3.9668    1.7014   -0.6067 H   0  0  0  0  0  0  0  0  0  0  0  0
  1  2  1  0
  2  3  2  0
  3  4  1  0
  4  5  2  0
  4  6  1  0
  6  7  2  0
  7  8  1  0
  7  9  1  0
  9 10  1  0
 10 11  1  0
 11 12  1  0
 12 13  1  0
 13 14  1  0
 14 15  2  0
 15 16  1  0
 16 17  2  0
 17 18  1  0
 18 19  2  0
 18 20  1  0
 20 21  1  0
 21 22  1  0
 22 23  1  0
 23 24  1  0
 24 25  2  0
 24 26  1  0
 21 27  1  0
 27 28  2  0
 27 29  1  0
 17 30  1  0
 30 31  2  0
 11 32  1  0
  8  2  1  0
 31 14  1  0
 32  6  1  0
  1 33  1  0
  1 34  1  0
  8 35  1  0
  9 36  1  0
 10 37  1  0
 10 38  1  0
 11 39  1  6
 12 40  1  0
 12 41  1  0
 13 42  1  0
 15 43  1  0
 16 44  1  0
 20 45  1  0
 21 46  1  1
 22 47  1  0
 22 48  1  0
 23 49  1  0
 23 50  1  0
 26 51  1  0
 29 52  1  0
 30 53  1  0
 31 54  1  0
 32 55  1  0
M  END
$$$$

     RDKit          3D

 55 57  0  0  0  0  0  0  0  0999 V2000
   -8.9684   -1.6274   -1.9624 N   0  0  0  0  0  0  0  0  0  0  0  0
   -7.5625   -1.4742   -1.9447 C   0  0  0  0  0  0  0  0  0  0  0  0
   -6.7162   -2.1526   -2.7375 N   0  0  0  0  0  0  0  0  0  0  0  0
   -5.3854   -1.9850   -2.6973 C   0  0  0  0  0  0  0  0  0  0  0  0
   -4.5956   -2.6141   -3.4331 O   0  0  0  0  0  0  0  0  0  0  0  0
   -4.8401   -1.0769   -1.8056 C   0  0  0  0  0  0  0  0  0  0  0  0
   -5.7023   -0.3811   -0.9931 C   0  0  0  0  0  0  0  0  0  0  0  0
   -7.0262   -0.5903   -1.0774 N   0  0  0  0  0  0  0  0  0  0  0  0
   -5.1652    0.5576   -0.0697 N   0  0  0  0  0  0  0  0  0  0  0  0
   -3.8181    0.3204    0.4184 C   0  0  0  0  0  0  0  0  0  0  0  0
   -2.8583    0.0495   -0.7522 C   0  0  2  0  0  0  0  0  0  0  0  0
   -2.5525    1.3941   -1.3563 C   0  0  0  0  0  0  0  0  0  0  0  0
   -1.9351    2.2783   -0.4216 N   0  0  0  0  0  0  0  0  0  0  0  0
   -0.6272    2.0539    0.0765 C   0  0  0  0  0  0  0  0  0  0  0  0
    0.2203    1.1165   -0.4740 C   0  0  0  0  0  0  0  0  0  0  0  0
    1.5032    0.8969    0.0380 C   0  0  0  0  0  0  0  0  0  0  0  0
    1.9449    1.6231    1.1130 C   0  0  0  0  0  0  0  0  0  0  0  0
    3.2744    1.4219    1.6690 C   0  0  0  0  0  0  0  0  0  0  0  0
    3.6148    2.0694    2.6953 O   0  0  0  0  0  0  0  0  0  0  0  0
    4.2366    0.5340    1.1321 N   0  0  0  0  0  0  0  0  0  0  0  0
    5.5568    0.3564    1.7125 C   0  0  1  0  0  0  0  0  0  0  0  0
    5.7805   -0.9901    2.2623 C   0  0  0  0  0  0  0  0  0  0  0  0
    5.6099   -2.1661    1.3932 C   0  0  0  0  0  0  0  0  0  0  0  0
    6.4541   -2.3464    0.2282 C   0  0  0  0  0  0  0  0  0  0  0  0
    7.3912   -1.6011   -0.0612 O   0  0  0  0  0  0  0  0  0  0  0  0
    6.1434   -3.4565   -0.5921 O   0  0  0  0  0  0  0  0  0  0  0  0
    6.5961    0.8585    0.8397 C   0  0  0  0  0  0  0  0  0  0  0  0
    6.4174    1.2823   -0.3546 O   0  0  0  0  0  0  0  0  0  0  0  0
    7.9431    0.9263    1.2670 O   0  0  0  0  0  0  0  0  0  0  0  0
    1.0760    2.5519    1.6405 C   0  0  0  0  0  0  0  0  0  0  0  0
   -0.1849    2.7946    1.1676 C   0  0  0  0  0  0  0  0  0  0  0  0
   -3.4567   -0.8406   -1.7004 N   0  0  0  0  0  0  0  0  0  0  0  0
   -9.4475   -1.7847   -2.8646 H   0  0  0  0  0  0  0  0  0  0  0  0
   -9.5270   -1.5855   -1.0912 H   0  0  0  0  0  0  0  0  0  0  0  0
   -7.6621   -0.0523   -0.4522 H   0  0  0  0  0  0  0  0  0  0  0  0
   -5.7537    1.3734    0.2192 H   0  0  0  0  0  0  0  0  0  0  0  0
   -3.4949    1.2480    0.9330 H   0  0  0  0  0  0  0  0  0  0  0  0
   -3.7583   -0.5814    1.0665 H   0  0  0  0  0  0  0  0  0  0  0  0
   -1.9830   -0.4298   -0.3191 H   0  0  0  0  0  0  0  0  0  0  0  0
   -3.5092    1.8078   -1.7333 H   0  0  0  0  0  0  0  0  0  0  0  0
   -1.8180    1.2533   -2.1991 H   0  0  0  0  0  0  0  0  0  0  0  0
   -2.4626    3.1141   -0.0964 H   0  0  0  0  0  0  0  0  0  0  0  0
   -0.1060    0.5475   -1.3211 H   0  0  0  0  0  0  0  0  0  0  0  0
    2.0916    0.1536   -0.4469 H   0  0  0  0  0  0  0  0  0  0  0  0
    3.9760   -0.0096    0.2843 H   0  0  0  0  0  0  0  0  0  0  0  0
    5.6138    1.0519    2.6411 H   0  0  0  0  0  0  0  0  0  0  0  0
    5.2563   -1.1347    3.2708 H   0  0  0  0  0  0  0  0  0  0  0  0
    6.8722   -0.9957    2.6158 H   0  0  0  0  0  0  0  0  0  0  0  0
    4.5362   -2.1219    0.9749 H   0  0  0  0  0  0  0  0  0  0  0  0
    5.5630   -3.1239    2.0205 H   0  0  0  0  0  0  0  0  0  0  0  0
    6.8483   -3.7740   -1.2679 H   0  0  0  0  0  0  0  0  0  0  0  0
    8.6281    1.4911    0.8107 H   0  0  0  0  0  0  0  0  0  0  0  0
    1.4431    3.1167    2.4903 H   0  0  0  0  0  0  0  0  0  0  0  0
   -0.8490    3.5468    1.6178 H   0  0  0  0  0  0  0  0  0  0  0  0
   -2.8251   -1.3615   -2.3730 H   0  0  0  0  0  0  0  0  0  0  0  0
  1  2  1  0
  2  3  2  0
  3  4  1  0
  4  5  2  0
  4  6  1  0
  6  7  2  0
  7  8  1  0
  7  9  1  0
  9 10  1  0
 10 11  1  0
 11 12  1  0
 12 13  1  0
 13 14  1  0
 14 15  2  0
 15 16  1  0
 16 17  2  0
 17 18  1  0
 18 19  2  0
 18 20  1  0
 20 21  1  0
 21 22  1  0
 22 23  1  0
 23 24  1  0
 24 25  2  0
 24 26  1  0
 21 27  1  0
 27 28  2  0
 27 29  1  0
 17 30  1  0
 30 31  2  0
 11 32  1  0
  8  2  1  0
 31 14  1  0
 32  6  1  0
  1 33  1  0
  1 34  1  0
  8 35  1  0
  9 36  1  0
 10 37  1  0
 10 38  1  0
 11 39  1  1
 12 40  1  0
 12 41  1  0
 13 42  1  0
 15 43  1  0
 16 44  1  0
 20 45  1  0
 21 46  1  1
 22 47  1  0
 22 48  1  0
 23 49  1  0
 23 50  1  0
 26 51  1  0
 29 52  1  0
 30 53  1  0
 31 54  1  0
 32 55  1  0
M  END
$$$$

     RDKit          3D

 55 57  0  0  0  0  0  0  0  0999 V2000
   -6.1945    4.1540    0.8927 N   0  0  0  0  0  0  0  0  0  0  0  0
   -5.6508    2.8561    0.7357 C   0  0  0  0  0  0  0  0  0  0  0  0
   -5.1748    2.1419    1.7888 N   0  0  0  0  0  0  0  0  0  0  0  0
   -4.6607    0.9170    1.6493 C   0  0  0  0  0  0  0  0  0  0  0  0
   -4.2144    0.2503    2.6456 O   0  0  0  0  0  0  0  0  0  0  0  0
   -4.5969    0.3341    0.4185 C   0  0  0  0  0  0  0  0  0  0  0  0
   -5.0751    1.0371   -0.6805 C   0  0  0  0  0  0  0  0  0  0  0  0
   -5.5794    2.2648   -0.4701 N   0  0  0  0  0  0  0  0  0  0  0  0
   -5.0318    0.4727   -1.9864 N   0  0  0  0  0  0  0  0  0  0  0  0
   -4.7954   -0.9532   -2.0727 C   0  0  0  0  0  0  0  0  0  0  0  0
   -3.6053   -1.2508   -1.1675 C   0  0  2  0  0  0  0  0  0  0  0  0
   -3.1488   -2.6755   -1.3063 C   0  0  0  0  0  0  0  0  0  0  0  0
   -2.0272   -2.8919   -0.4321 N   0  0  0  0  0  0  0  0  0  0  0  0
   -0.7519   -2.3264   -0.5442 C   0  0  0  0  0  0  0  0  0  0  0  0
    0.1732   -2.4576    0.4997 C   0  0  0  0  0  0  0  0  0  0  0  0
    1.4467   -1.9318    0.4349 C   0  0  0  0  0  0  0  0  0  0  0  0
    1.8548   -1.2460   -0.6857 C   0  0  0  0  0  0  0  0  0  0  0  0
    3.1920   -0.6739   -0.7963 C   0  0  0  0  0  0  0  0  0  0  0  0
    3.4873   -0.0723   -1.8657 O   0  0  0  0  0  0  0  0  0  0  0  0
    4.1675   -0.7544    0.2176 N   0  0  0  0  0  0  0  0  0  0  0  0
    5.4732   -0.1452   -0.0027 C   0  0  1  0  0  0  0  0  0  0  0  0
    5.7784    0.8867    1.0626 C   0  0  0  0  0  0  0  0  0  0  0  0
    4.7424    1.9974    1.0630 C   0  0  0  0  0  0  0  0  0  0  0  0
    5.0492    3.0045    2.1100 C   0  0  0  0  0  0  0  0  0  0  0  0
    4.2779    3.9808    2.2270 O   0  0  0  0  0  0  0  0  0  0  0  0
    6.1508    2.8835    2.9405 O   0  0  0  0  0  0  0  0  0  0  0  0
    6.4927   -1.2061    0.1064 C   0  0  0  0  0  0  0  0  0  0  0  0
    6.1565   -2.3822    0.3499 O   0  0  0  0  0  0  0  0  0  0  0  0
    7.8239   -0.8912   -0.0626 O   0  0  0  0  0  0  0  0  0  0  0  0
    0.9321   -1.1174   -1.7228 C   0  0  0  0  0  0  0  0  0  0  0  0
   -0.3411   -1.6431   -1.6585 C   0  0  0  0  0  0  0  0  0  0  0  0
   -4.0616   -0.9693    0.1941 N   0  0  0  0  0  0  0  0  0  0  0  0
   -7.1310    4.2765    1.3210 H   0  0  0  0  0  0  0  0  0  0  0  0
   -5.6830    5.0036    0.5902 H   0  0  0  0  0  0  0  0  0  0  0  0
   -5.9354    2.7753   -1.3249 H   0  0  0  0  0  0  0  0  0  0  0  0
   -5.1715    1.1156   -2.7887 H   0  0  0  0  0  0  0  0  0  0  0  0
   -4.6089   -1.2921   -3.1097 H   0  0  0  0  0  0  0  0  0  0  0  0
   -5.7218   -1.4576   -1.6969 H   0  0  0  0  0  0  0  0  0  0  0  0
   -2.8300   -0.5062   -1.4032 H   0  0  0  0  0  0  0  0  0  0  0  0
   -3.9771   -3.3649   -1.1409 H   0  0  0  0  0  0  0  0  0  0  0  0
   -2.7786   -2.8821   -2.3456 H   0  0  0  0  0  0  0  0  0  0  0  0
   -2.2188   -3.5597    0.3790 H   0  0  0  0  0  0  0  0  0  0  0  0
   -0.1270   -2.9946    1.3929 H   0  0  0  0  0  0  0  0  0  0  0  0
    2.1252   -2.0706    1.2908 H   0  0  0  0  0  0  0  0  0  0  0  0
    3.9538   -1.2492    1.1229 H   0  0  0  0  0  0  0  0  0  0  0  0
    5.4933    0.3209   -1.0182 H   0  0  0  0  0  0  0  0  0  0  0  0
    5.8438    0.3872    2.0426 H   0  0  0  0  0  0  0  0  0  0  0  0
    6.7624    1.3501    0.8543 H   0  0  0  0  0  0  0  0  0  0  0  0
    3.7759    1.5314    1.3420 H   0  0  0  0  0  0  0  0  0  0  0  0
    4.7091    2.5252    0.1024 H   0  0  0  0  0  0  0  0  0  0  0  0
    6.4777    3.7467    3.3855 H   0  0  0  0  0  0  0  0  0  0  0  0
    8.5636   -1.5172    0.2682 H   0  0  0  0  0  0  0  0  0  0  0  0
    1.2361   -0.5752   -2.6241 H   0  0  0  0  0  0  0  0  0  0  0  0
   -1.0248   -1.5237   -2.5011 H   0  0  0  0  0  0  0  0  0  0  0  0
   -4.0218   -1.6319    0.9776 H   0  0  0  0  0  0  0  0  0  0  0  0
  1  2  1  0
  2  3  2  0
  3  4  1  0
  4  5  2  0
  4  6  1  0
  6  7  2  0
  7  8  1  0
  7  9  1  0
  9 10  1  0
 10 11  1  0
 11 12  1  0
 12 13  1  0
 13 14  1  0
 14 15  2  0
 15 16  1  0
 16 17  2  0
 17 18  1  0
 18 19  2  0
 18 20  1  0
 20 21  1  0
 21 22  1  0
 22 23  1  0
 23 24  1  0
 24 25  2  0
 24 26  1  0
 21 27  1  0
 27 28  2  0
 27 29  1  0
 17 30  1  0
 30 31  2  0
 11 32  1  0
  8  2  1  0
 31 14  1  0
 32  6  1  0
  1 33  1  0
  1 34  1  0
  8 35  1  0
  9 36  1  0
 10 37  1  0
 10 38  1  0
 11 39  1  6
 12 40  1  0
 12 41  1  0
 13 42  1  0
 15 43  1  0
 16 44  1  0
 20 45  1  0
 21 46  1  6
 22 47  1  0
 22 48  1  0
 23 49  1  0
 23 50  1  0
 26 51  1  0
 29 52  1  0
 30 53  1  0
 31 54  1  0
 32 55  1  0
M  END
$$$$

     RDKit          3D

 55 57  0  0  0  0  0  0  0  0999 V2000
    9.3672   -0.8806    1.7527 N   0  0  0  0  0  0  0  0  0  0  0  0
    8.2679   -0.2671    1.1112 C   0  0  0  0  0  0  0  0  0  0  0  0
    8.1785    1.0786    0.9748 N   0  0  0  0  0  0  0  0  0  0  0  0
    7.1392    1.6625    0.3699 C   0  0  0  0  0  0  0  0  0  0  0  0
    7.0397    2.8968    0.2354 O   0  0  0  0  0  0  0  0  0  0  0  0
    6.1118    0.8870   -0.1401 C   0  0  0  0  0  0  0  0  0  0  0  0
    6.1953   -0.4734   -0.0061 C   0  0  0  0  0  0  0  0  0  0  0  0
    7.2730   -1.0169    0.6171 N   0  0  0  0  0  0  0  0  0  0  0  0
    5.1469   -1.2795   -0.5231 N   0  0  0  0  0  0  0  0  0  0  0  0
    4.1432   -0.7011   -1.3672 C   0  0  0  0  0  0  0  0  0  0  0  0
    3.7222    0.6688   -0.8593 C   0  0  2  0  0  0  0  0  0  0  0  0
    2.8957    1.3341   -1.8985 C   0  0  0  0  0  0  0  0  0  0  0  0
    1.7158    0.7368   -2.3658 N   0  0  0  0  0  0  0  0  0  0  0  0
    0.5725    0.3657   -1.6432 C   0  0  0  0  0  0  0  0  0  0  0  0
    0.5565   -0.2502   -0.4256 C   0  0  0  0  0  0  0  0  0  0  0  0
   -0.6423   -0.5478    0.2433 C   0  0  0  0  0  0  0  0  0  0  0  0
   -1.8550   -0.2292   -0.3068 C   0  0  0  0  0  0  0  0  0  0  0  0
   -3.0638   -0.5613    0.4297 C   0  0  0  0  0  0  0  0  0  0  0  0
   -2.9986   -1.2793    1.4877 O   0  0  0  0  0  0  0  0  0  0  0  0
   -4.3621   -0.1361    0.0562 N   0  0  0  0  0  0  0  0  0  0  0  0
   -5.5785   -0.4735    0.8043 C   0  0  1  0  0  0  0  0  0  0  0  0
   -6.1199    0.7065    1.5056 C   0  0  0  0  0  0  0  0  0  0  0  0
   -7.3843    0.4299    2.2414 C   0  0  0  0  0  0  0  0  0  0  0  0
   -8.5693    0.1592    1.4158 C   0  0  0  0  0  0  0  0  0  0  0  0
   -8.5636    0.4953    0.1982 O   0  0  0  0  0  0  0  0  0  0  0  0
   -9.6969   -0.4505    1.9156 O   0  0  0  0  0  0  0  0  0  0  0  0
   -6.4593   -1.2358   -0.0528 C   0  0  0  0  0  0  0  0  0  0  0  0
   -6.4193   -1.1109   -1.2970 O   0  0  0  0  0  0  0  0  0  0  0  0
   -7.3698   -2.1370    0.5132 O   0  0  0  0  0  0  0  0  0  0  0  0
   -1.8648    0.3907   -1.5344 C   0  0  0  0  0  0  0  0  0  0  0  0
   -0.6945    0.6823   -2.1883 C   0  0  0  0  0  0  0  0  0  0  0  0
    4.9892    1.4455   -0.7874 N   0  0  0  0  0  0  0  0  0  0  0  0
   10.2807   -0.9235    1.2804 H   0  0  0  0  0  0  0  0  0  0  0  0
    9.2375   -1.2807    2.6955 H   0  0  0  0  0  0  0  0  0  0  0  0
    7.2733   -2.0740    0.6849 H   0  0  0  0  0  0  0  0  0  0  0  0
    5.1627   -2.2943   -0.2502 H   0  0  0  0  0  0  0  0  0  0  0  0
    4.4995   -0.5592   -2.4137 H   0  0  0  0  0  0  0  0  0  0  0  0
    3.2367   -1.3342   -1.3751 H   0  0  0  0  0  0  0  0  0  0  0  0
    3.2500    0.6746    0.1100 H   0  0  0  0  0  0  0  0  0  0  0  0
    2.5713    2.3353   -1.4333 H   0  0  0  0  0  0  0  0  0  0  0  0
    3.6135    1.5937   -2.7411 H   0  0  0  0  0  0  0  0  0  0  0  0
    1.6911    0.5372   -3.4340 H   0  0  0  0  0  0  0  0  0  0  0  0
    1.4697   -0.5466    0.0427 H   0  0  0  0  0  0  0  0  0  0  0  0
   -0.5413   -1.0332    1.1978 H   0  0  0  0  0  0  0  0  0  0  0  0
   -4.4893    0.4438   -0.7842 H   0  0  0  0  0  0  0  0  0  0  0  0
   -5.1757   -1.1509    1.6523 H   0  0  0  0  0  0  0  0  0  0  0  0
   -5.3733    1.0248    2.3041 H   0  0  0  0  0  0  0  0  0  0  0  0
   -6.3240    1.5767    0.8323 H   0  0  0  0  0  0  0  0  0  0  0  0
   -7.6062    1.2516    2.9958 H   0  0  0  0  0  0  0  0  0  0  0  0
   -7.2057   -0.4584    2.9350 H   0  0  0  0  0  0  0  0  0  0  0  0
  -10.6228   -0.3366    1.5506 H   0  0  0  0  0  0  0  0  0  0  0  0
   -8.2034   -2.4295    0.0609 H   0  0  0  0  0  0  0  0  0  0  0  0
   -2.7986    0.6667   -2.0218 H   0  0  0  0  0  0  0  0  0  0  0  0
   -0.6682    1.1707   -3.1590 H   0  0  0  0  0  0  0  0  0  0  0  0
    5.0498    2.3870   -1.2063 H   0  0  0  0  0  0  0  0  0  0  0  0
  1  2  1  0
  2  3  2  0
  3  4  1  0
  4  5  2  0
  4  6  1  0
  6  7  2  0
  7  8  1  0
  7  9  1  0
  9 10  1  0
 10 11  1  0
 11 12  1  0
 12 13  1  0
 13 14  1  0
 14 15  2  0
 15 16  1  0
 16 17  2  0
 17 18  1  0
 18 19  2  0
 18 20  1  0
 20 21  1  0
 21 22  1  0
 22 23  1  0
 23 24  1  0
 24 25  2  0
 24 26  1  0
 21 27  1  0
 27 28  2  0
 27 29  1  0
 17 30  1  0
 30 31  2  0
 11 32  1  0
  8  2  1  0
 31 14  1  0
 32  6  1  0
  1 33  1  0
  1 34  1  0
  8 35  1  0
  9 36  1  0
 10 37  1  0
 10 38  1  0
 11 39  1  1
 12 40  1  0
 12 41  1  0
 13 42  1  0
 15 43  1  0
 16 44  1  0
 20 45  1  0
 21 46  1  1
 22 47  1  0
 22 48  1  0
 23 49  1  0
 23 50  1  0
 26 51  1  0
 29 52  1  0
 30 53  1  0
 31 54  1  0
 32 55  1  0
M  END
$$$$

     RDKit          3D

 55 57  0  0  0  0  0  0  0  0999 V2000
    9.3491    1.4891   -0.3763 N   0  0  0  0  0  0  0  0  0  0  0  0
    7.9588    1.3247   -0.1293 C   0  0  0  0  0  0  0  0  0  0  0  0
    7.0618    2.3081   -0.3253 N   0  0  0  0  0  0  0  0  0  0  0  0
    5.7630    2.0959   -0.0777 C   0  0  0  0  0  0  0  0  0  0  0  0
    4.9385    3.0346   -0.2681 O   0  0  0  0  0  0  0  0  0  0  0  0
    5.3293    0.8915    0.3725 C   0  0  0  0  0  0  0  0  0  0  0  0
    6.2459   -0.1156    0.5728 C   0  0  0  0  0  0  0  0  0  0  0  0
    7.5472    0.1158    0.3195 N   0  0  0  0  0  0  0  0  0  0  0  0
    5.8393   -1.3948    1.0451 N   0  0  0  0  0  0  0  0  0  0  0  0
    4.4903   -1.5969    1.5069 C   0  0  0  0  0  0  0  0  0  0  0  0
    3.4715   -0.7320    0.8114 C   0  0  2  0  0  0  0  0  0  0  0  0
    3.1144   -1.2927   -0.5632 C   0  0  0  0  0  0  0  0  0  0  0  0
    2.1168   -0.4291   -1.1406 N   0  0  0  0  0  0  0  0  0  0  0  0
    0.7831   -0.5046   -0.6495 C   0  0  0  0  0  0  0  0  0  0  0  0
    0.4133   -1.4960    0.2205 C   0  0  0  0  0  0  0  0  0  0  0  0
   -0.9095   -1.5408    0.6684 C   0  0  0  0  0  0  0  0  0  0  0  0
   -1.8819   -0.6440    0.2890 C   0  0  0  0  0  0  0  0  0  0  0  0
   -3.2483   -0.6817    0.7580 C   0  0  0  0  0  0  0  0  0  0  0  0
   -3.5095   -1.1805    1.8685 O   0  0  0  0  0  0  0  0  0  0  0  0
   -4.2772   -0.1514   -0.0469 N   0  0  0  0  0  0  0  0  0  0  0  0
   -5.6904   -0.1454    0.3841 C   0  0  1  0  0  0  0  0  0  0  0  0
   -6.0774    1.3071    0.4050 C   0  0  0  0  0  0  0  0  0  0  0  0
   -7.4497    1.6488    0.8193 C   0  0  0  0  0  0  0  0  0  0  0  0
   -8.4847    1.1177   -0.0567 C   0  0  0  0  0  0  0  0  0  0  0  0
   -9.5365    0.5782    0.3578 O   0  0  0  0  0  0  0  0  0  0  0  0
   -8.2761    1.2262   -1.4381 O   0  0  0  0  0  0  0  0  0  0  0  0
   -6.4885   -0.9976   -0.4849 C   0  0  0  0  0  0  0  0  0  0  0  0
   -6.1196   -1.1684   -1.6890 O   0  0  0  0  0  0  0  0  0  0  0  0
   -7.6559   -1.6741   -0.1186 O   0  0  0  0  0  0  0  0  0  0  0  0
   -1.4493    0.3476   -0.5999 C   0  0  0  0  0  0  0  0  0  0  0  0
   -0.1698    0.4206   -1.0555 C   0  0  0  0  0  0  0  0  0  0  0  0
    3.9725    0.6317    0.6487 N   0  0  0  0  0  0  0  0  0  0  0  0
    9.7852    2.4114   -0.2626 H   0  0  0  0  0  0  0  0  0  0  0  0
    9.9317    0.6837   -0.6745 H   0  0  0  0  0  0  0  0  0  0  0  0
    8.2187   -0.6742    0.4868 H   0  0  0  0  0  0  0  0  0  0  0  0
    6.5386   -2.1854    1.0494 H   0  0  0  0  0  0  0  0  0  0  0  0
    4.4165   -1.4095    2.6171 H   0  0  0  0  0  0  0  0  0  0  0  0
    4.2229   -2.6616    1.3070 H   0  0  0  0  0  0  0  0  0  0  0  0
    2.5562   -0.6859    1.4127 H   0  0  0  0  0  0  0  0  0  0  0  0
    2.7835   -2.3204   -0.4218 H   0  0  0  0  0  0  0  0  0  0  0  0
    4.0235   -1.3201   -1.2170 H   0  0  0  0  0  0  0  0  0  0  0  0
    2.3574    0.2527   -1.9103 H   0  0  0  0  0  0  0  0  0  0  0  0
    1.0634   -2.2609    0.5895 H   0  0  0  0  0  0  0  0  0  0  0  0
   -1.2239   -2.3278    1.3635 H   0  0  0  0  0  0  0  0  0  0  0  0
   -4.0549    0.2530   -0.9771 H   0  0  0  0  0  0  0  0  0  0  0  0
   -5.7012   -0.5625    1.4036 H   0  0  0  0  0  0  0  0  0  0  0  0
   -5.8705    1.7225   -0.6344 H   0  0  0  0  0  0  0  0  0  0  0  0
   -5.3195    1.8449    1.0626 H   0  0  0  0  0  0  0  0  0  0  0  0
   -7.6450    1.2856    1.8694 H   0  0  0  0  0  0  0  0  0  0  0  0
   -7.5327    2.7733    0.8450 H   0  0  0  0  0  0  0  0  0  0  0  0
   -9.0471    1.2989   -2.0938 H   0  0  0  0  0  0  0  0  0  0  0  0
   -7.8892   -2.5871   -0.4860 H   0  0  0  0  0  0  0  0  0  0  0  0
   -2.2256    1.0669   -0.9023 H   0  0  0  0  0  0  0  0  0  0  0  0
    0.1350    1.2061   -1.7451 H   0  0  0  0  0  0  0  0  0  0  0  0
    3.3066    1.4049    0.7405 H   0  0  0  0  0  0  0  0  0  0  0  0
  1  2  1  0
  2  3  2  0
  3  4  1  0
  4  5  2  0
  4  6  1  0
  6  7  2  0
  7  8  1  0
  7  9  1  0
  9 10  1  0
 10 11  1  0
 11 12  1  0
 12 13  1  0
 13 14  1  0
 14 15  2  0
 15 16  1  0
 16 17  2  0
 17 18  1  0
 18 19  2  0
 18 20  1  0
 20 21  1  0
 21 22  1  0
 22 23  1  0
 23 24  1  0
 24 25  2  0
 24 26  1  0
 21 27  1  0
 27 28  2  0
 27 29  1  0
 17 30  1  0
 30 31  2  0
 11 32  1  0
  8  2  1  0
 31 14  1  0
 32  6  1  0
  1 33  1  0
  1 34  1  0
  8 35  1  0
  9 36  1  0
 10 37  1  0
 10 38  1  0
 11 39  1  1
 12 40  1  0
 12 41  1  0
 13 42  1  0
 15 43  1  0
 16 44  1  0
 20 45  1  0
 21 46  1  1
 22 47  1  0
 22 48  1  0
 23 49  1  0
 23 50  1  0
 26 51  1  0
 29 52  1  0
 30 53  1  0
 31 54  1  0
 32 55  1  0
M  END
$$$$

     RDKit          3D

 55 57  0  0  0  0  0  0  0  0999 V2000
    9.7550   -0.2030    0.4285 N   0  0  0  0  0  0  0  0  0  0  0  0
    8.3490   -0.3134    0.6003 C   0  0  0  0  0  0  0  0  0  0  0  0
    7.8476   -0.6223    1.8257 N   0  0  0  0  0  0  0  0  0  0  0  0
    6.5379   -0.7378    2.0327 C   0  0  0  0  0  0  0  0  0  0  0  0
    6.0560   -1.0245    3.1675 O   0  0  0  0  0  0  0  0  0  0  0  0
    5.6354   -0.5464    1.0002 C   0  0  0  0  0  0  0  0  0  0  0  0
    6.1478   -0.2328   -0.2433 C   0  0  0  0  0  0  0  0  0  0  0  0
    7.4751   -0.1272   -0.4022 N   0  0  0  0  0  0  0  0  0  0  0  0
    5.2362   -0.0386   -1.2910 N   0  0  0  0  0  0  0  0  0  0  0  0
    3.8745   -0.4985   -1.1878 C   0  0  0  0  0  0  0  0  0  0  0  0
    3.3028   -0.2074    0.2005 C   0  0  2  0  0  0  0  0  0  0  0  0
    3.0510    1.2762    0.3691 C   0  0  0  0  0  0  0  0  0  0  0  0
    2.1246    1.8279   -0.5657 N   0  0  0  0  0  0  0  0  0  0  0  0
    0.7506    1.5202   -0.6446 C   0  0  0  0  0  0  0  0  0  0  0  0
    0.0053    1.9516   -1.7435 C   0  0  0  0  0  0  0  0  0  0  0  0
   -1.3389    1.7050   -1.8897 C   0  0  0  0  0  0  0  0  0  0  0  0
   -2.0186    0.9967   -0.9185 C   0  0  0  0  0  0  0  0  0  0  0  0
   -3.4524    0.7105   -1.0497 C   0  0  0  0  0  0  0  0  0  0  0  0
   -4.0563    0.9656   -2.1316 O   0  0  0  0  0  0  0  0  0  0  0  0
   -4.2221    0.1505   -0.0073 N   0  0  0  0  0  0  0  0  0  0  0  0
   -5.6741   -0.1330   -0.1661 C   0  0  1  0  0  0  0  0  0  0  0  0
   -5.8774   -1.5649    0.1222 C   0  0  0  0  0  0  0  0  0  0  0  0
   -7.2167   -2.1609    0.0913 C   0  0  0  0  0  0  0  0  0  0  0  0
   -8.1914   -1.7800    1.0979 C   0  0  0  0  0  0  0  0  0  0  0  0
   -7.9972   -1.1669    2.1725 O   0  0  0  0  0  0  0  0  0  0  0  0
   -9.5335   -2.1361    0.8541 O   0  0  0  0  0  0  0  0  0  0  0  0
   -6.3852    0.8347    0.6663 C   0  0  0  0  0  0  0  0  0  0  0  0
   -5.7592    1.4461    1.5887 O   0  0  0  0  0  0  0  0  0  0  0  0
   -7.7526    1.1378    0.4912 O   0  0  0  0  0  0  0  0  0  0  0  0
   -1.3016    0.5631    0.1722 C   0  0  0  0  0  0  0  0  0  0  0  0
    0.0665    0.8154    0.3193 C   0  0  0  0  0  0  0  0  0  0  0  0
    4.2396   -0.6657    1.1964 N   0  0  0  0  0  0  0  0  0  0  0  0
   10.2353   -0.9400   -0.1364 H   0  0  0  0  0  0  0  0  0  0  0  0
   10.2695    0.5977    0.8628 H   0  0  0  0  0  0  0  0  0  0  0  0
    7.8571    0.1135   -1.3565 H   0  0  0  0  0  0  0  0  0  0  0  0
    5.5326    0.4409   -2.1582 H   0  0  0  0  0  0  0  0  0  0  0  0
    3.1972    0.0473   -1.8957 H   0  0  0  0  0  0  0  0  0  0  0  0
    3.7562   -1.5828   -1.3805 H   0  0  0  0  0  0  0  0  0  0  0  0
    2.3632   -0.7911    0.2517 H   0  0  0  0  0  0  0  0  0  0  0  0
    4.0235    1.8040    0.3409 H   0  0  0  0  0  0  0  0  0  0  0  0
    2.6740    1.4008    1.4155 H   0  0  0  0  0  0  0  0  0  0  0  0
    2.5067    2.5356   -1.2650 H   0  0  0  0  0  0  0  0  0  0  0  0
    0.5318    2.5156   -2.5256 H   0  0  0  0  0  0  0  0  0  0  0  0
   -1.9168    2.0404   -2.7417 H   0  0  0  0  0  0  0  0  0  0  0  0
   -3.7697   -0.0739    0.8993 H   0  0  0  0  0  0  0  0  0  0  0  0
   -5.8643    0.0712   -1.2630 H   0  0  0  0  0  0  0  0  0  0  0  0
   -5.2333   -2.1705   -0.6006 H   0  0  0  0  0  0  0  0  0  0  0  0
   -5.3700   -1.7896    1.1230 H   0  0  0  0  0  0  0  0  0  0  0  0
   -7.7172   -2.0312   -0.9148 H   0  0  0  0  0  0  0  0  0  0  0  0
   -7.1205   -3.2931    0.1620 H   0  0  0  0  0  0  0  0  0  0  0  0
  -10.2640   -1.9257    1.5321 H   0  0  0  0  0  0  0  0  0  0  0  0
   -8.1144    1.8937    1.0574 H   0  0  0  0  0  0  0  0  0  0  0  0
   -1.7484    0.0080    0.9719 H   0  0  0  0  0  0  0  0  0  0  0  0
    0.6085    0.4763    1.1828 H   0  0  0  0  0  0  0  0  0  0  0  0
    3.8858   -1.0890    2.0673 H   0  0  0  0  0  0  0  0  0  0  0  0
  1  2  1  0
  2  3  2  0
  3  4  1  0
  4  5  2  0
  4  6  1  0
  6  7  2  0
  7  8  1  0
  7  9  1  0
  9 10  1  0
 10 11  1  0
 11 12  1  0
 12 13  1  0
 13 14  1  0
 14 15  2  0
 15 16  1  0
 16 17  2  0
 17 18  1  0
 18 19  2  0
 18 20  1  0
 20 21  1  0
 21 22  1  0
 22 23  1  0
 23 24  1  0
 24 25  2  0
 24 26  1  0
 21 27  1  0
 27 28  2  0
 27 29  1  0
 17 30  1  0
 30 31  2  0
 11 32  1  0
  8  2  1  0
 31 14  1  0
 32  6  1  0
  1 33  1  0
  1 34  1  0
  8 35  1  0
  9 36  1  0
 10 37  1  0
 10 38  1  0
 11 39  1  1
 12 40  1  0
 12 41  1  0
 13 42  1  0
 15 43  1  0
 16 44  1  0
 20 45  1  0
 21 46  1  6
 22 47  1  0
 22 48  1  0
 23 49  1  0
 23 50  1  0
 26 51  1  0
 29 52  1  0
 30 53  1  0
 31 54  1  0
 32 55  1  0
M  END
$$$$

     RDKit          3D

 55 57  0  0  0  0  0  0  0  0999 V2000
    9.2231    0.8771    0.1114 N   0  0  0  0  0  0  0  0  0  0  0  0
    7.8624    0.6425    0.4417 C   0  0  0  0  0  0  0  0  0  0  0  0
    7.2599    1.4660    1.3155 N   0  0  0  0  0  0  0  0  0  0  0  0
    5.9761    1.2887    1.6625 C   0  0  0  0  0  0  0  0  0  0  0  0
    5.4067    2.0538    2.4781 O   0  0  0  0  0  0  0  0  0  0  0  0
    5.2751    0.2475    1.1111 C   0  0  0  0  0  0  0  0  0  0  0  0
    5.9029   -0.5872    0.2188 C   0  0  0  0  0  0  0  0  0  0  0  0
    7.1798   -0.3694   -0.0937 N   0  0  0  0  0  0  0  0  0  0  0  0
    5.1772   -1.6760   -0.3667 N   0  0  0  0  0  0  0  0  0  0  0  0
    3.9454   -2.0727    0.2782 C   0  0  0  0  0  0  0  0  0  0  0  0
    3.1278   -0.8140    0.5128 C   0  0  2  0  0  0  0  0  0  0  0  0
    3.0562   -0.0409   -0.7837 C   0  0  0  0  0  0  0  0  0  0  0  0
    2.2743    1.1461   -0.5579 N   0  0  0  0  0  0  0  0  0  0  0  0
    0.8788    1.0252   -0.3389 C   0  0  0  0  0  0  0  0  0  0  0  0
    0.1254    2.1247    0.0910 C   0  0  0  0  0  0  0  0  0  0  0  0
   -1.2303    2.0600    0.2895 C   0  0  0  0  0  0  0  0  0  0  0  0
   -1.9403    0.8704    0.0682 C   0  0  0  0  0  0  0  0  0  0  0  0
   -3.3856    0.8534    0.2736 C   0  0  0  0  0  0  0  0  0  0  0  0
   -4.0054    1.9515    0.5090 O   0  0  0  0  0  0  0  0  0  0  0  0
   -4.0869   -0.3639    0.2119 N   0  0  0  0  0  0  0  0  0  0  0  0
   -5.5530   -0.3155    0.4198 C   0  0  1  0  0  0  0  0  0  0  0  0
   -6.1172   -0.9150   -0.8501 C   0  0  0  0  0  0  0  0  0  0  0  0
   -7.6004   -0.9323   -0.8142 C   0  0  0  0  0  0  0  0  0  0  0  0
   -8.1301    0.4412   -0.7135 C   0  0  0  0  0  0  0  0  0  0  0  0
   -9.3761    0.5609   -0.4995 O   0  0  0  0  0  0  0  0  0  0  0  0
   -7.3961    1.6035   -0.8327 O   0  0  0  0  0  0  0  0  0  0  0  0
   -5.8093   -1.1186    1.6245 C   0  0  0  0  0  0  0  0  0  0  0  0
   -4.8928   -1.7009    2.2186 O   0  0  0  0  0  0  0  0  0  0  0  0
   -7.1007   -1.2258    2.1071 O   0  0  0  0  0  0  0  0  0  0  0  0
   -1.2069   -0.2059   -0.3511 C   0  0  0  0  0  0  0  0  0  0  0  0
    0.1794   -0.1361   -0.5534 C   0  0  0  0  0  0  0  0  0  0  0  0
    3.9086    0.0171    1.4477 N   0  0  0  0  0  0  0  0  0  0  0  0
    9.9898    0.2241    0.3251 H   0  0  0  0  0  0  0  0  0  0  0  0
    9.4488    1.7618   -0.3743 H   0  0  0  0  0  0  0  0  0  0  0  0
    7.6381   -1.0219   -0.7783 H   0  0  0  0  0  0  0  0  0  0  0  0
    5.5543   -2.1298   -1.2133 H   0  0  0  0  0  0  0  0  0  0  0  0
    4.1771   -2.4920    1.2873 H   0  0  0  0  0  0  0  0  0  0  0  0
    3.3650   -2.7822   -0.3379 H   0  0  0  0  0  0  0  0  0  0  0  0
    2.1468   -1.0208    0.9293 H   0  0  0  0  0  0  0  0  0  0  0  0
    2.5465   -0.6222   -1.5813 H   0  0  0  0  0  0  0  0  0  0  0  0
    4.0596    0.2930   -1.1201 H   0  0  0  0  0  0  0  0  0  0  0  0
    2.7044    2.1128   -0.5487 H   0  0  0  0  0  0  0  0  0  0  0  0
    0.6584    3.0425    0.2649 H   0  0  0  0  0  0  0  0  0  0  0  0
   -1.8171    2.9068    0.6223 H   0  0  0  0  0  0  0  0  0  0  0  0
   -3.6246   -1.2848    0.0299 H   0  0  0  0  0  0  0  0  0  0  0  0
   -5.8173    0.7454    0.5471 H   0  0  0  0  0  0  0  0  0  0  0  0
   -5.6601   -1.9022   -1.0747 H   0  0  0  0  0  0  0  0  0  0  0  0
   -5.8027   -0.2457   -1.6819 H   0  0  0  0  0  0  0  0  0  0  0  0
   -7.9700   -1.5778    0.0329 H   0  0  0  0  0  0  0  0  0  0  0  0
   -8.0068   -1.4115   -1.7468 H   0  0  0  0  0  0  0  0  0  0  0  0
   -7.6555    2.4371   -0.3225 H   0  0  0  0  0  0  0  0  0  0  0  0
   -7.3339   -2.0124    2.7069 H   0  0  0  0  0  0  0  0  0  0  0  0
   -1.7218   -1.1543   -0.5355 H   0  0  0  0  0  0  0  0  0  0  0  0
    0.6890   -1.0413   -0.8984 H   0  0  0  0  0  0  0  0  0  0  0  0
    3.5040    0.4203    2.3062 H   0  0  0  0  0  0  0  0  0  0  0  0
  1  2  1  0
  2  3  2  0
  3  4  1  0
  4  5  2  0
  4  6  1  0
  6  7  2  0
  7  8  1  0
  7  9  1  0
  9 10  1  0
 10 11  1  0
 11 12  1  0
 12 13  1  0
 13 14  1  0
 14 15  2  0
 15 16  1  0
 16 17  2  0
 17 18  1  0
 18 19  2  0
 18 20  1  0
 20 21  1  0
 21 22  1  0
 22 23  1  0
 23 24  1  0
 24 25  2  0
 24 26  1  0
 21 27  1  0
 27 28  2  0
 27 29  1  0
 17 30  1  0
 30 31  2  0
 11 32  1  0
  8  2  1  0
 31 14  1  0
 32  6  1  0
  1 33  1  0
  1 34  1  0
  8 35  1  0
  9 36  1  0
 10 37  1  0
 10 38  1  0
 11 39  1  1
 12 40  1  0
 12 41  1  0
 13 42  1  0
 15 43  1  0
 16 44  1  0
 20 45  1  0
 21 46  1  1
 22 47  1  0
 22 48  1  0
 23 49  1  0
 23 50  1  0
 26 51  1  0
 29 52  1  0
 30 53  1  0
 31 54  1  0
 32 55  1  0
M  END
$$$$

     RDKit          3D

 55 57  0  0  0  0  0  0  0  0999 V2000
    7.6790   -3.2882    0.4413 N   0  0  0  0  0  0  0  0  0  0  0  0
    6.9112   -2.0879    0.6665 C   0  0  0  0  0  0  0  0  0  0  0  0
    7.0382   -1.4306    1.8349 N   0  0  0  0  0  0  0  0  0  0  0  0
    6.3129   -0.3133    2.0245 C   0  0  0  0  0  0  0  0  0  0  0  0
    6.3754    0.3578    3.0893 O   0  0  0  0  0  0  0  0  0  0  0  0
    5.4538    0.1566    1.0468 C   0  0  0  0  0  0  0  0  0  0  0  0
    5.3613   -0.5631   -0.1438 C   0  0  0  0  0  0  0  0  0  0  0  0
    6.0951   -1.6859   -0.3248 N   0  0  0  0  0  0  0  0  0  0  0  0
    4.4786   -0.0777   -1.1450 N   0  0  0  0  0  0  0  0  0  0  0  0
    3.9540    1.2680   -1.0504 C   0  0  0  0  0  0  0  0  0  0  0  0
    3.4925    1.4526    0.3974 C   0  0  2  0  0  0  0  0  0  0  0  0
    2.7645    2.7420    0.5838 C   0  0  0  0  0  0  0  0  0  0  0  0
    1.6035    2.7454   -0.2751 N   0  0  0  0  0  0  0  0  0  0  0  0
    0.4671    1.9054   -0.1129 C   0  0  0  0  0  0  0  0  0  0  0  0
    0.2839    1.1785    1.0319 C   0  0  0  0  0  0  0  0  0  0  0  0
   -0.8269    0.3609    1.1475 C   0  0  0  0  0  0  0  0  0  0  0  0
   -1.7667    0.2410    0.1589 C   0  0  0  0  0  0  0  0  0  0  0  0
   -2.9076   -0.6229    0.3234 C   0  0  0  0  0  0  0  0  0  0  0  0
   -3.0335   -1.2758    1.4010 O   0  0  0  0  0  0  0  0  0  0  0  0
   -3.9212   -0.8080   -0.6370 N   0  0  0  0  0  0  0  0  0  0  0  0
   -5.0599   -1.6837   -0.4472 C   0  0  1  0  0  0  0  0  0  0  0  0
   -6.3720   -0.9381   -0.5766 C   0  0  0  0  0  0  0  0  0  0  0  0
   -6.3524    0.1417    0.5080 C   0  0  0  0  0  0  0  0  0  0  0  0
   -7.6056    0.8960    0.4257 C   0  0  0  0  0  0  0  0  0  0  0  0
   -8.4881    0.6336   -0.4200 O   0  0  0  0  0  0  0  0  0  0  0  0
   -7.8047    1.9386    1.3285 O   0  0  0  0  0  0  0  0  0  0  0  0
   -5.0133   -2.7223   -1.5030 C   0  0  0  0  0  0  0  0  0  0  0  0
   -4.0989   -2.7401   -2.3589 O   0  0  0  0  0  0  0  0  0  0  0  0
   -5.9848   -3.7166   -1.5823 O   0  0  0  0  0  0  0  0  0  0  0  0
   -1.5610    0.9815   -0.9816 C   0  0  0  0  0  0  0  0  0  0  0  0
   -0.4617    1.8066   -1.1267 C   0  0  0  0  0  0  0  0  0  0  0  0
    4.6734    1.3355    1.2180 N   0  0  0  0  0  0  0  0  0  0  0  0
    8.5927   -3.1557   -0.0492 H   0  0  0  0  0  0  0  0  0  0  0  0
    7.3207   -4.2042    0.7568 H   0  0  0  0  0  0  0  0  0  0  0  0
    6.0082   -2.2114   -1.2311 H   0  0  0  0  0  0  0  0  0  0  0  0
    4.2024   -0.6779   -1.9490 H   0  0  0  0  0  0  0  0  0  0  0  0
    3.1119    1.4522   -1.7175 H   0  0  0  0  0  0  0  0  0  0  0  0
    4.7870    2.0018   -1.1826 H   0  0  0  0  0  0  0  0  0  0  0  0
    2.8622    0.5707    0.6053 H   0  0  0  0  0  0  0  0  0  0  0  0
    2.3990    2.7778    1.6347 H   0  0  0  0  0  0  0  0  0  0  0  0
    3.4268    3.6048    0.3822 H   0  0  0  0  0  0  0  0  0  0  0  0
    1.6159    3.4346   -1.0855 H   0  0  0  0  0  0  0  0  0  0  0  0
    1.0093    1.2517    1.8588 H   0  0  0  0  0  0  0  0  0  0  0  0
   -0.9194   -0.1933    2.0805 H   0  0  0  0  0  0  0  0  0  0  0  0
   -3.8552   -0.2887   -1.5382 H   0  0  0  0  0  0  0  0  0  0  0  0
   -4.9874   -2.1684    0.5681 H   0  0  0  0  0  0  0  0  0  0  0  0
   -6.4059   -0.5052   -1.5880 H   0  0  0  0  0  0  0  0  0  0  0  0
   -7.1727   -1.6694   -0.3948 H   0  0  0  0  0  0  0  0  0  0  0  0
   -5.4714    0.7879    0.4073 H   0  0  0  0  0  0  0  0  0  0  0  0
   -6.2417   -0.4049    1.4762 H   0  0  0  0  0  0  0  0  0  0  0  0
   -8.5212    2.6449    1.1310 H   0  0  0  0  0  0  0  0  0  0  0  0
   -5.8477   -4.5939   -2.0310 H   0  0  0  0  0  0  0  0  0  0  0  0
   -2.2631    0.9471   -1.8245 H   0  0  0  0  0  0  0  0  0  0  0  0
   -0.3267    2.3865   -2.0537 H   0  0  0  0  0  0  0  0  0  0  0  0
    4.9904    2.0253    1.9055 H   0  0  0  0  0  0  0  0  0  0  0  0
  1  2  1  0
  2  3  2  0
  3  4  1  0
  4  5  2  0
  4  6  1  0
  6  7  2  0
  7  8  1  0
  7  9  1  0
  9 10  1  0
 10 11  1  0
 11 12  1  0
 12 13  1  0
 13 14  1  0
 14 15  2  0
 15 16  1  0
 16 17  2  0
 17 18  1  0
 18 19  2  0
 18 20  1  0
 20 21  1  0
 21 22  1  0
 22 23  1  0
 23 24  1  0
 24 25  2  0
 24 26  1  0
 21 27  1  0
 27 28  2  0
 27 29  1  0
 17 30  1  0
 30 31  2  0
 11 32  1  0
  8  2  1  0
 31 14  1  0
 32  6  1  0
  1 33  1  0
  1 34  1  0
  8 35  1  0
  9 36  1  0
 10 37  1  0
 10 38  1  0
 11 39  1  1
 12 40  1  0
 12 41  1  0
 13 42  1  0
 15 43  1  0
 16 44  1  0
 20 45  1  0
 21 46  1  1
 22 47  1  0
 22 48  1  0
 23 49  1  0
 23 50  1  0
 26 51  1  0
 29 52  1  0
 30 53  1  0
 31 54  1  0
 32 55  1  0
M  END
$$$$

     RDKit          3D

 55 57  0  0  0  0  0  0  0  0999 V2000
   10.4318    0.1399    1.2911 N   0  0  0  0  0  0  0  0  0  0  0  0
    9.0233   -0.0216    1.4575 C   0  0  0  0  0  0  0  0  0  0  0  0
    8.5094   -0.8290    2.4089 N   0  0  0  0  0  0  0  0  0  0  0  0
    7.1709   -0.9664    2.5469 C   0  0  0  0  0  0  0  0  0  0  0  0
    6.6757   -1.7234    3.4387 O   0  0  0  0  0  0  0  0  0  0  0  0
    6.2809   -0.2970    1.7329 C   0  0  0  0  0  0  0  0  0  0  0  0
    6.8187    0.5243    0.7653 C   0  0  0  0  0  0  0  0  0  0  0  0
    8.1682    0.6405    0.6528 N   0  0  0  0  0  0  0  0  0  0  0  0
    5.9158    1.2168   -0.0773 N   0  0  0  0  0  0  0  0  0  0  0  0
    4.4822    1.2198    0.1408 C   0  0  0  0  0  0  0  0  0  0  0  0
    4.0779   -0.1212    0.6617 C   0  0  2  0  0  0  0  0  0  0  0  0
    2.6080   -0.2568    0.9175 C   0  0  0  0  0  0  0  0  0  0  0  0
    1.8538   -0.0531   -0.2806 N   0  0  0  0  0  0  0  0  0  0  0  0
    0.4225   -0.1290   -0.2698 C   0  0  0  0  0  0  0  0  0  0  0  0
   -0.3147    0.0412   -1.4277 C   0  0  0  0  0  0  0  0  0  0  0  0
   -1.6950   -0.0291   -1.4217 C   0  0  0  0  0  0  0  0  0  0  0  0
   -2.3513   -0.2721   -0.2474 C   0  0  0  0  0  0  0  0  0  0  0  0
   -3.8079   -0.3639   -0.1572 C   0  0  0  0  0  0  0  0  0  0  0  0
   -4.3641   -0.5083    0.9839 O   0  0  0  0  0  0  0  0  0  0  0  0
   -4.6598   -0.3034   -1.2608 N   0  0  0  0  0  0  0  0  0  0  0  0
   -6.1371   -0.4007   -1.1207 C   0  0  1  0  0  0  0  0  0  0  0  0
   -6.7153    0.8803   -1.6577 C   0  0  0  0  0  0  0  0  0  0  0  0
   -8.2121    0.8785   -1.5279 C   0  0  0  0  0  0  0  0  0  0  0  0
   -8.5964    0.7449   -0.1060 C   0  0  0  0  0  0  0  0  0  0  0  0
   -8.6625   -0.3635    0.5048 O   0  0  0  0  0  0  0  0  0  0  0  0
   -8.9031    1.9272    0.5937 O   0  0  0  0  0  0  0  0  0  0  0  0
   -6.5730   -1.5342   -1.9505 C   0  0  0  0  0  0  0  0  0  0  0  0
   -5.7434   -2.1720   -2.6383 O   0  0  0  0  0  0  0  0  0  0  0  0
   -7.8819   -1.9320   -2.0017 O   0  0  0  0  0  0  0  0  0  0  0  0
   -1.6239   -0.4427    0.9102 C   0  0  0  0  0  0  0  0  0  0  0  0
   -0.2361   -0.3737    0.9142 C   0  0  0  0  0  0  0  0  0  0  0  0
    4.8647   -0.4154    1.8420 N   0  0  0  0  0  0  0  0  0  0  0  0
   11.0671   -0.5867    0.9042 H   0  0  0  0  0  0  0  0  0  0  0  0
   10.8547    1.0464    1.5758 H   0  0  0  0  0  0  0  0  0  0  0  0
    8.5483    1.2706   -0.0911 H   0  0  0  0  0  0  0  0  0  0  0  0
    6.3457    1.7389   -0.8858 H   0  0  0  0  0  0  0  0  0  0  0  0
    4.1873    1.9833    0.9159 H   0  0  0  0  0  0  0  0  0  0  0  0
    3.9566    1.4320   -0.8219 H   0  0  0  0  0  0  0  0  0  0  0  0
    4.3693   -0.8707   -0.1176 H   0  0  0  0  0  0  0  0  0  0  0  0
    2.4465   -1.3155    1.2783 H   0  0  0  0  0  0  0  0  0  0  0  0
    2.3234    0.4716    1.6925 H   0  0  0  0  0  0  0  0  0  0  0  0
    2.3203    0.1537   -1.1864 H   0  0  0  0  0  0  0  0  0  0  0  0
    0.2371    0.2302   -2.3269 H   0  0  0  0  0  0  0  0  0  0  0  0
   -2.2284    0.1067   -2.3323 H   0  0  0  0  0  0  0  0  0  0  0  0
   -4.2993   -0.1892   -2.2159 H   0  0  0  0  0  0  0  0  0  0  0  0
   -6.4029   -0.5073   -0.0571 H   0  0  0  0  0  0  0  0  0  0  0  0
   -6.5143    0.9372   -2.7704 H   0  0  0  0  0  0  0  0  0  0  0  0
   -6.2981    1.7772   -1.1470 H   0  0  0  0  0  0  0  0  0  0  0  0
   -8.5610    1.9105   -1.8697 H   0  0  0  0  0  0  0  0  0  0  0  0
   -8.6902    0.1472   -2.2014 H   0  0  0  0  0  0  0  0  0  0  0  0
   -9.0142    1.8841    1.5997 H   0  0  0  0  0  0  0  0  0  0  0  0
   -8.1742   -2.9094   -2.0078 H   0  0  0  0  0  0  0  0  0  0  0  0
   -2.1067   -0.6367    1.8601 H   0  0  0  0  0  0  0  0  0  0  0  0
    0.3336   -0.5082    1.8256 H   0  0  0  0  0  0  0  0  0  0  0  0
    4.4732   -0.7064    2.7613 H   0  0  0  0  0  0  0  0  0  0  0  0
  1  2  1  0
  2  3  2  0
  3  4  1  0
  4  5  2  0
  4  6  1  0
  6  7  2  0
  7  8  1  0
  7  9  1  0
  9 10  1  0
 10 11  1  0
 11 12  1  0
 12 13  1  0
 13 14  1  0
 14 15  2  0
 15 16  1  0
 16 17  2  0
 17 18  1  0
 18 19  2  0
 18 20  1  0
 20 21  1  0
 21 22  1  0
 22 23  1  0
 23 24  1  0
 24 25  2  0
 24 26  1  0
 21 27  1  0
 27 28  2  0
 27 29  1  0
 17 30  1  0
 30 31  2  0
 11 32  1  0
  8  2  1  0
 31 14  1  0
 32  6  1  0
  1 33  1  0
  1 34  1  0
  8 35  1  0
  9 36  1  0
 10 37  1  0
 10 38  1  0
 11 39  1  6
 12 40  1  0
 12 41  1  0
 13 42  1  0
 15 43  1  0
 16 44  1  0
 20 45  1  0
 21 46  1  1
 22 47  1  0
 22 48  1  0
 23 49  1  0
 23 50  1  0
 26 51  1  0
 29 52  1  0
 30 53  1  0
 31 54  1  0
 32 55  1  0
M  END
$$$$

     RDKit          3D

 55 57  0  0  0  0  0  0  0  0999 V2000
    6.4168    4.1951    0.6957 N   0  0  0  0  0  0  0  0  0  0  0  0
    6.0084    2.8464    0.5621 C   0  0  0  0  0  0  0  0  0  0  0  0
    6.4975    1.8959    1.3766 N   0  0  0  0  0  0  0  0  0  0  0  0
    6.1366    0.6070    1.2833 C   0  0  0  0  0  0  0  0  0  0  0  0
    6.5822   -0.2975    2.0352 O   0  0  0  0  0  0  0  0  0  0  0  0
    5.2231    0.2404    0.3084 C   0  0  0  0  0  0  0  0  0  0  0  0
    4.7112    1.1975   -0.5344 C   0  0  0  0  0  0  0  0  0  0  0  0
    5.1244    2.4783   -0.3779 N   0  0  0  0  0  0  0  0  0  0  0  0
    3.7830    0.8328   -1.5264 N   0  0  0  0  0  0  0  0  0  0  0  0
    2.9981   -0.3963   -1.3187 C   0  0  0  0  0  0  0  0  0  0  0  0
    3.9243   -1.5147   -0.9301 C   0  0  2  0  0  0  0  0  0  0  0  0
    3.2868   -2.8097   -0.5808 C   0  0  0  0  0  0  0  0  0  0  0  0
    2.3586   -2.7953    0.5099 N   0  0  0  0  0  0  0  0  0  0  0  0
    1.0310   -2.3176    0.4386 C   0  0  0  0  0  0  0  0  0  0  0  0
    0.2846   -2.0160    1.5552 C   0  0  0  0  0  0  0  0  0  0  0  0
   -1.0384   -1.5773    1.4617 C   0  0  0  0  0  0  0  0  0  0  0  0
   -1.6567   -1.4266    0.2432 C   0  0  0  0  0  0  0  0  0  0  0  0
   -3.0477   -0.9674    0.1097 C   0  0  0  0  0  0  0  0  0  0  0  0
   -3.4758   -0.8537   -1.0911 O   0  0  0  0  0  0  0  0  0  0  0  0
   -3.8838   -0.6636    1.1990 N   0  0  0  0  0  0  0  0  0  0  0  0
   -5.2535   -0.2144    0.9990 C   0  0  1  0  0  0  0  0  0  0  0  0
   -5.2124    1.1025    0.2707 C   0  0  0  0  0  0  0  0  0  0  0  0
   -6.5822    1.6928    0.0010 C   0  0  0  0  0  0  0  0  0  0  0  0
   -6.3396    2.9992   -0.7069 C   0  0  0  0  0  0  0  0  0  0  0  0
   -7.3459    3.6703   -1.0327 O   0  0  0  0  0  0  0  0  0  0  0  0
   -5.0784    3.4772   -1.0052 O   0  0  0  0  0  0  0  0  0  0  0  0
   -5.9721   -1.2419    0.2133 C   0  0  0  0  0  0  0  0  0  0  0  0
   -5.4026   -2.3109   -0.1817 O   0  0  0  0  0  0  0  0  0  0  0  0
   -7.3155   -1.1317   -0.1561 O   0  0  0  0  0  0  0  0  0  0  0  0
   -0.8917   -1.7341   -0.8661 C   0  0  0  0  0  0  0  0  0  0  0  0
    0.4130   -2.1670   -0.7762 C   0  0  0  0  0  0  0  0  0  0  0  0
    4.7998   -1.1045    0.1547 N   0  0  0  0  0  0  0  0  0  0  0  0
    5.9331    4.9661    0.2114 H   0  0  0  0  0  0  0  0  0  0  0  0
    7.2364    4.4357    1.3032 H   0  0  0  0  0  0  0  0  0  0  0  0
    4.7039    3.1774   -1.0481 H   0  0  0  0  0  0  0  0  0  0  0  0
    3.6425    1.3865   -2.3669 H   0  0  0  0  0  0  0  0  0  0  0  0
    2.3126   -0.1222   -0.4767 H   0  0  0  0  0  0  0  0  0  0  0  0
    2.4655   -0.6190   -2.2404 H   0  0  0  0  0  0  0  0  0  0  0  0
    4.5992   -1.7080   -1.8164 H   0  0  0  0  0  0  0  0  0  0  0  0
    4.1079   -3.5385   -0.3529 H   0  0  0  0  0  0  0  0  0  0  0  0
    2.7832   -3.2690   -1.4907 H   0  0  0  0  0  0  0  0  0  0  0  0
    2.6696   -3.1670    1.4549 H   0  0  0  0  0  0  0  0  0  0  0  0
    0.7428   -2.1236    2.5476 H   0  0  0  0  0  0  0  0  0  0  0  0
   -1.5980   -1.3475    2.3734 H   0  0  0  0  0  0  0  0  0  0  0  0
   -3.4855   -0.7722    2.1716 H   0  0  0  0  0  0  0  0  0  0  0  0
   -5.7509   -0.0770    2.0003 H   0  0  0  0  0  0  0  0  0  0  0  0
   -4.6957    1.8822    0.9036 H   0  0  0  0  0  0  0  0  0  0  0  0
   -4.7208    1.0272   -0.7241 H   0  0  0  0  0  0  0  0  0  0  0  0
   -7.0708    1.0483   -0.7742 H   0  0  0  0  0  0  0  0  0  0  0  0
   -7.1737    1.8111    0.9104 H   0  0  0  0  0  0  0  0  0  0  0  0
   -4.8881    4.4835   -1.1334 H   0  0  0  0  0  0  0  0  0  0  0  0
   -7.6148   -1.3373   -1.0982 H   0  0  0  0  0  0  0  0  0  0  0  0
   -1.3650   -1.6208   -1.8422 H   0  0  0  0  0  0  0  0  0  0  0  0
    0.9646   -2.3982   -1.6710 H   0  0  0  0  0  0  0  0  0  0  0  0
    5.1184   -1.8131    0.8259 H   0  0  0  0  0  0  0  0  0  0  0  0
  1  2  1  0
  2  3  2  0
  3  4  1  0
  4  5  2  0
  4  6  1  0
  6  7  2  0
  7  8  1  0
  7  9  1  0
  9 10  1  0
 10 11  1  0
 11 12  1  0
 12 13  1  0
 13 14  1  0
 14 15  2  0
 15 16  1  0
 16 17  2  0
 17 18  1  0
 18 19  2  0
 18 20  1  0
 20 21  1  0
 21 22  1  0
 22 23  1  0
 23 24  1  0
 24 25  2  0
 24 26  1  0
 21 27  1  0
 27 28  2  0
 27 29  1  0
 17 30  1  0
 30 31  2  0
 11 32  1  0
  8  2  1  0
 31 14  1  0
 32  6  1  0
  1 33  1  0
  1 34  1  0
  8 35  1  0
  9 36  1  0
 10 37  1  0
 10 38  1  0
 11 39  1  6
 12 40  1  0
 12 41  1  0
 13 42  1  0
 15 43  1  0
 16 44  1  0
 20 45  1  0
 21 46  1  1
 22 47  1  0
 22 48  1  0
 23 49  1  0
 23 50  1  0
 26 51  1  0
 29 52  1  0
 30 53  1  0
 31 54  1  0
 32 55  1  0
M  END
$$$$

     RDKit          3D

 55 57  0  0  0  0  0  0  0  0999 V2000
   -6.7919    3.4214   -2.3011 N   0  0  0  0  0  0  0  0  0  0  0  0
   -6.1356    2.4632   -1.4935 C   0  0  0  0  0  0  0  0  0  0  0  0
   -5.4215    2.9551   -0.4501 N   0  0  0  0  0  0  0  0  0  0  0  0
   -4.7503    2.1451    0.3939 C   0  0  0  0  0  0  0  0  0  0  0  0
   -4.0823    2.5343    1.3625 O   0  0  0  0  0  0  0  0  0  0  0  0
   -4.8350    0.7764    0.1294 C   0  0  0  0  0  0  0  0  0  0  0  0
   -5.5726    0.3067   -0.9443 C   0  0  0  0  0  0  0  0  0  0  0  0
   -6.2202    1.1588   -1.7511 N   0  0  0  0  0  0  0  0  0  0  0  0
   -5.5999   -1.1000   -1.1293 N   0  0  0  0  0  0  0  0  0  0  0  0
   -5.0292   -2.0270   -0.1745 C   0  0  0  0  0  0  0  0  0  0  0  0
   -3.7762   -1.4267    0.3891 C   0  0  2  0  0  0  0  0  0  0  0  0
   -3.1787   -2.2745    1.4894 C   0  0  0  0  0  0  0  0  0  0  0  0
   -1.9734   -1.7258    2.0474 N   0  0  0  0  0  0  0  0  0  0  0  0
   -0.7554   -1.6017    1.3321 C   0  0  0  0  0  0  0  0  0  0  0  0
    0.2988   -0.8784    1.8765 C   0  0  0  0  0  0  0  0  0  0  0  0
    1.5224   -0.7315    1.2310 C   0  0  0  0  0  0  0  0  0  0  0  0
    1.7232   -1.3118    0.0102 C   0  0  0  0  0  0  0  0  0  0  0  0
    2.9793   -1.1940   -0.7135 C   0  0  0  0  0  0  0  0  0  0  0  0
    3.1039   -1.7555   -1.8548 O   0  0  0  0  0  0  0  0  0  0  0  0
    4.1202   -0.4884   -0.2540 N   0  0  0  0  0  0  0  0  0  0  0  0
    5.3429   -0.4131   -1.0317 C   0  0  1  0  0  0  0  0  0  0  0  0
    5.7534    1.0056   -1.3310 C   0  0  0  0  0  0  0  0  0  0  0  0
    5.9832    1.7513   -0.0582 C   0  0  0  0  0  0  0  0  0  0  0  0
    6.3858    3.1420   -0.3868 C   0  0  0  0  0  0  0  0  0  0  0  0
    6.4877    3.5301   -1.5786 O   0  0  0  0  0  0  0  0  0  0  0  0
    6.6565    4.0360    0.6551 O   0  0  0  0  0  0  0  0  0  0  0  0
    6.4374   -1.0321   -0.2436 C   0  0  0  0  0  0  0  0  0  0  0  0
    6.2170   -1.5009    0.8808 O   0  0  0  0  0  0  0  0  0  0  0  0
    7.7403   -1.1000   -0.7521 O   0  0  0  0  0  0  0  0  0  0  0  0
    0.6837   -2.0296   -0.5347 C   0  0  0  0  0  0  0  0  0  0  0  0
   -0.5488   -2.1804    0.1108 C   0  0  0  0  0  0  0  0  0  0  0  0
   -4.1516   -0.1317    0.9801 N   0  0  0  0  0  0  0  0  0  0  0  0
   -6.4674    3.5607   -3.2731 H   0  0  0  0  0  0  0  0  0  0  0  0
   -7.5802    3.9659   -1.9151 H   0  0  0  0  0  0  0  0  0  0  0  0
   -6.7780    0.8292   -2.5607 H   0  0  0  0  0  0  0  0  0  0  0  0
   -6.0470   -1.4915   -1.9835 H   0  0  0  0  0  0  0  0  0  0  0  0
   -4.8757   -3.0127   -0.6355 H   0  0  0  0  0  0  0  0  0  0  0  0
   -5.7747   -2.0817    0.6723 H   0  0  0  0  0  0  0  0  0  0  0  0
   -3.0729   -1.1956   -0.4013 H   0  0  0  0  0  0  0  0  0  0  0  0
   -3.9031   -2.5669    2.2477 H   0  0  0  0  0  0  0  0  0  0  0  0
   -2.8664   -3.2405    0.9903 H   0  0  0  0  0  0  0  0  0  0  0  0
   -2.0459   -1.4067    3.0611 H   0  0  0  0  0  0  0  0  0  0  0  0
    0.1184   -0.4277    2.8430 H   0  0  0  0  0  0  0  0  0  0  0  0
    2.3190   -0.1554    1.6967 H   0  0  0  0  0  0  0  0  0  0  0  0
    4.0529   -0.0185    0.6741 H   0  0  0  0  0  0  0  0  0  0  0  0
    5.2778   -0.9483   -1.9797 H   0  0  0  0  0  0  0  0  0  0  0  0
    5.0479    1.5225   -2.0177 H   0  0  0  0  0  0  0  0  0  0  0  0
    6.7193    0.9512   -1.8741 H   0  0  0  0  0  0  0  0  0  0  0  0
    6.8137    1.2543    0.4841 H   0  0  0  0  0  0  0  0  0  0  0  0
    5.1057    1.7256    0.6202 H   0  0  0  0  0  0  0  0  0  0  0  0
    7.2595    4.8218    0.3925 H   0  0  0  0  0  0  0  0  0  0  0  0
    8.4943   -1.2819   -0.1118 H   0  0  0  0  0  0  0  0  0  0  0  0
    0.8484   -2.4888   -1.5050 H   0  0  0  0  0  0  0  0  0  0  0  0
   -1.3234   -2.7595   -0.3576 H   0  0  0  0  0  0  0  0  0  0  0  0
   -3.9355    0.1216    1.9674 H   0  0  0  0  0  0  0  0  0  0  0  0
  1  2  1  0
  2  3  2  0
  3  4  1  0
  4  5  2  0
  4  6  1  0
  6  7  2  0
  7  8  1  0
  7  9  1  0
  9 10  1  0
 10 11  1  0
 11 12  1  0
 12 13  1  0
 13 14  1  0
 14 15  2  0
 15 16  1  0
 16 17  2  0
 17 18  1  0
 18 19  2  0
 18 20  1  0
 20 21  1  0
 21 22  1  0
 22 23  1  0
 23 24  1  0
 24 25  2  0
 24 26  1  0
 21 27  1  0
 27 28  2  0
 27 29  1  0
 17 30  1  0
 30 31  2  0
 11 32  1  0
  8  2  1  0
 31 14  1  0
 32  6  1  0
  1 33  1  0
  1 34  1  0
  8 35  1  0
  9 36  1  0
 10 37  1  0
 10 38  1  0
 11 39  1  6
 12 40  1  0
 12 41  1  0
 13 42  1  0
 15 43  1  0
 16 44  1  0
 20 45  1  0
 21 46  1  6
 22 47  1  0
 22 48  1  0
 23 49  1  0
 23 50  1  0
 26 51  1  0
 29 52  1  0
 30 53  1  0
 31 54  1  0
 32 55  1  0
M  END
$$$$

     RDKit          3D

 55 57  0  0  0  0  0  0  0  0999 V2000
   -9.9920   -0.0617   -0.7579 N   0  0  0  0  0  0  0  0  0  0  0  0
   -8.5572   -0.1203   -0.8814 C   0  0  0  0  0  0  0  0  0  0  0  0
   -7.9574    0.3492   -2.0032 N   0  0  0  0  0  0  0  0  0  0  0  0
   -6.6136    0.2744   -2.0750 C   0  0  0  0  0  0  0  0  0  0  0  0
   -5.9625    0.6846   -3.0775 O   0  0  0  0  0  0  0  0  0  0  0  0
   -5.8845   -0.2614   -1.0409 C   0  0  0  0  0  0  0  0  0  0  0  0
   -6.5432   -0.7349    0.0998 C   0  0  0  0  0  0  0  0  0  0  0  0
   -7.8706   -0.6501    0.1471 N   0  0  0  0  0  0  0  0  0  0  0  0
   -5.7913   -1.2858    1.1653 N   0  0  0  0  0  0  0  0  0  0  0  0
   -4.3496   -1.3161    1.1445 C   0  0  0  0  0  0  0  0  0  0  0  0
   -3.8323   -1.4161   -0.2786 C   0  0  2  0  0  0  0  0  0  0  0  0
   -2.3549   -1.2003   -0.2972 C   0  0  0  0  0  0  0  0  0  0  0  0
   -1.9608    0.0863    0.2086 N   0  0  0  0  0  0  0  0  0  0  0  0
   -0.5812    0.4808    0.2923 C   0  0  0  0  0  0  0  0  0  0  0  0
   -0.2422    1.7225    0.7758 C   0  0  0  0  0  0  0  0  0  0  0  0
    1.0907    2.0804    0.8500 C   0  0  0  0  0  0  0  0  0  0  0  0
    2.1113    1.2463    0.4594 C   0  0  0  0  0  0  0  0  0  0  0  0
    3.4852    1.6916    0.5667 C   0  0  0  0  0  0  0  0  0  0  0  0
    3.7208    2.8530    0.9538 O   0  0  0  0  0  0  0  0  0  0  0  0
    4.6131    0.8858    0.2571 N   0  0  0  0  0  0  0  0  0  0  0  0
    5.9758    1.3277    0.3631 C   0  0  1  0  0  0  0  0  0  0  0  0
    6.8505    0.6123    1.3076 C   0  0  0  0  0  0  0  0  0  0  0  0
    7.0632   -0.8422    1.1170 C   0  0  0  0  0  0  0  0  0  0  0  0
    7.6746   -1.2076   -0.1780 C   0  0  0  0  0  0  0  0  0  0  0  0
    7.0266   -1.5865   -1.1741 O   0  0  0  0  0  0  0  0  0  0  0  0
    9.0783   -1.1200   -0.2880 O   0  0  0  0  0  0  0  0  0  0  0  0
    6.5807    1.3735   -0.9822 C   0  0  0  0  0  0  0  0  0  0  0  0
    5.9450    1.1051   -2.0583 O   0  0  0  0  0  0  0  0  0  0  0  0
    7.9216    1.7237   -1.1561 O   0  0  0  0  0  0  0  0  0  0  0  0
    1.7626    0.0072   -0.0228 C   0  0  0  0  0  0  0  0  0  0  0  0
    0.4230   -0.3874   -0.1114 C   0  0  0  0  0  0  0  0  0  0  0  0
   -4.4673   -0.3714   -1.0499 N   0  0  0  0  0  0  0  0  0  0  0  0
  -10.5732   -0.0676   -1.6138 H   0  0  0  0  0  0  0  0  0  0  0  0
  -10.4370   -0.0144    0.1656 H   0  0  0  0  0  0  0  0  0  0  0  0
   -8.3584   -1.0091    1.0107 H   0  0  0  0  0  0  0  0  0  0  0  0
   -6.2901   -1.6761    1.9804 H   0  0  0  0  0  0  0  0  0  0  0  0
   -4.0262   -2.1938    1.7485 H   0  0  0  0  0  0  0  0  0  0  0  0
   -4.0048   -0.3624    1.5590 H   0  0  0  0  0  0  0  0  0  0  0  0
   -4.0776   -2.4117   -0.7319 H   0  0  0  0  0  0  0  0  0  0  0  0
   -2.0180   -1.2662   -1.3713 H   0  0  0  0  0  0  0  0  0  0  0  0
   -1.8204   -2.0421    0.2156 H   0  0  0  0  0  0  0  0  0  0  0  0
   -2.6771    0.7721    0.5291 H   0  0  0  0  0  0  0  0  0  0  0  0
   -1.0252    2.3949    1.0887 H   0  0  0  0  0  0  0  0  0  0  0  0
    1.3615    3.0717    1.2364 H   0  0  0  0  0  0  0  0  0  0  0  0
    4.4073   -0.0838   -0.0652 H   0  0  0  0  0  0  0  0  0  0  0  0
    6.0007    2.4230    0.7098 H   0  0  0  0  0  0  0  0  0  0  0  0
    7.8796    1.0839    1.1815 H   0  0  0  0  0  0  0  0  0  0  0  0
    6.6357    0.8363    2.3868 H   0  0  0  0  0  0  0  0  0  0  0  0
    6.1574   -1.4559    1.3353 H   0  0  0  0  0  0  0  0  0  0  0  0
    7.8078   -1.1586    1.9104 H   0  0  0  0  0  0  0  0  0  0  0  0
    9.4992   -1.4759   -1.1374 H   0  0  0  0  0  0  0  0  0  0  0  0
    8.4502    1.3572   -1.9470 H   0  0  0  0  0  0  0  0  0  0  0  0
    2.4936   -0.6907   -0.3434 H   0  0  0  0  0  0  0  0  0  0  0  0
    0.1914   -1.3691   -0.4959 H   0  0  0  0  0  0  0  0  0  0  0  0
   -3.9389    0.3233   -1.6273 H   0  0  0  0  0  0  0  0  0  0  0  0
  1  2  1  0
  2  3  2  0
  3  4  1  0
  4  5  2  0
  4  6  1  0
  6  7  2  0
  7  8  1  0
  7  9  1  0
  9 10  1  0
 10 11  1  0
 11 12  1  0
 12 13  1  0
 13 14  1  0
 14 15  2  0
 15 16  1  0
 16 17  2  0
 17 18  1  0
 18 19  2  0
 18 20  1  0
 20 21  1  0
 21 22  1  0
 22 23  1  0
 23 24  1  0
 24 25  2  0
 24 26  1  0
 21 27  1  0
 27 28  2  0
 27 29  1  0
 17 30  1  0
 30 31  2  0
 11 32  1  0
  8  2  1  0
 31 14  1  0
 32  6  1  0
  1 33  1  0
  1 34  1  0
  8 35  1  0
  9 36  1  0
 10 37  1  0
 10 38  1  0
 11 39  1  6
 12 40  1  0
 12 41  1  0
 13 42  1  0
 15 43  1  0
 16 44  1  0
 20 45  1  0
 21 46  1  1
 22 47  1  0
 22 48  1  0
 23 49  1  0
 23 50  1  0
 26 51  1  0
 29 52  1  0
 30 53  1  0
 31 54  1  0
 32 55  1  0
M  END
$$$$

     RDKit          3D

 55 57  0  0  0  0  0  0  0  0999 V2000
   -9.5401   -0.7431    0.5423 N   0  0  0  0  0  0  0  0  0  0  0  0
   -8.1790   -0.6540    0.1837 C   0  0  0  0  0  0  0  0  0  0  0  0
   -7.7633   -1.0054   -1.0572 N   0  0  0  0  0  0  0  0  0  0  0  0
   -6.4618   -0.9295   -1.4218 C   0  0  0  0  0  0  0  0  0  0  0  0
   -6.1271   -1.2681   -2.5871 O   0  0  0  0  0  0  0  0  0  0  0  0
   -5.5393   -0.4863   -0.5152 C   0  0  0  0  0  0  0  0  0  0  0  0
   -5.9473   -0.1281    0.7423 C   0  0  0  0  0  0  0  0  0  0  0  0
   -7.2435   -0.2227    1.0485 N   0  0  0  0  0  0  0  0  0  0  0  0
   -4.9462    0.3288    1.6610 N   0  0  0  0  0  0  0  0  0  0  0  0
   -3.5890   -0.1643    1.5475 C   0  0  0  0  0  0  0  0  0  0  0  0
   -3.1567    0.0096    0.0965 C   0  0  2  0  0  0  0  0  0  0  0  0
   -2.8401    1.5012   -0.0390 C   0  0  0  0  0  0  0  0  0  0  0  0
   -1.7895    1.7881    0.8844 N   0  0  0  0  0  0  0  0  0  0  0  0
   -0.4728    1.2709    0.7052 C   0  0  0  0  0  0  0  0  0  0  0  0
   -0.0633    0.6994   -0.4762 C   0  0  0  0  0  0  0  0  0  0  0  0
    1.2328    0.1810   -0.6250 C   0  0  0  0  0  0  0  0  0  0  0  0
    2.1385    0.2277    0.4070 C   0  0  0  0  0  0  0  0  0  0  0  0
    3.5130   -0.3055    0.2766 C   0  0  0  0  0  0  0  0  0  0  0  0
    4.1231   -0.5606    1.3241 O   0  0  0  0  0  0  0  0  0  0  0  0
    4.1298   -0.5242   -0.9676 N   0  0  0  0  0  0  0  0  0  0  0  0
    5.4335   -1.0066   -1.2673 C   0  0  1  0  0  0  0  0  0  0  0  0
    6.4521   -0.9989   -0.1786 C   0  0  0  0  0  0  0  0  0  0  0  0
    6.8691    0.3173    0.3504 C   0  0  0  0  0  0  0  0  0  0  0  0
    7.5587    1.2069   -0.6147 C   0  0  0  0  0  0  0  0  0  0  0  0
    7.8444    0.8308   -1.7543 O   0  0  0  0  0  0  0  0  0  0  0  0
    7.8815    2.4853   -0.2102 O   0  0  0  0  0  0  0  0  0  0  0  0
    5.5055   -2.1911   -2.1352 C   0  0  0  0  0  0  0  0  0  0  0  0
    4.5374   -2.8065   -2.6259 O   0  0  0  0  0  0  0  0  0  0  0  0
    6.7725   -2.6786   -2.4440 O   0  0  0  0  0  0  0  0  0  0  0  0
    1.7134    0.8042    1.5843 C   0  0  0  0  0  0  0  0  0  0  0  0
    0.4408    1.3167    1.7407 C   0  0  0  0  0  0  0  0  0  0  0  0
   -4.1736   -0.3859   -0.8423 N   0  0  0  0  0  0  0  0  0  0  0  0
  -10.1504    0.0895    0.5281 H   0  0  0  0  0  0  0  0  0  0  0  0
   -9.9311   -1.6568    0.8234 H   0  0  0  0  0  0  0  0  0  0  0  0
   -7.5169    0.0636    2.0273 H   0  0  0  0  0  0  0  0  0  0  0  0
   -5.2593    1.0198    2.3945 H   0  0  0  0  0  0  0  0  0  0  0  0
   -2.9304    0.5058    2.1568 H   0  0  0  0  0  0  0  0  0  0  0  0
   -3.4963   -1.2206    1.8546 H   0  0  0  0  0  0  0  0  0  0  0  0
   -2.2669   -0.6253   -0.0601 H   0  0  0  0  0  0  0  0  0  0  0  0
   -3.7756    2.0254    0.2262 H   0  0  0  0  0  0  0  0  0  0  0  0
   -2.6136    1.7801   -1.0853 H   0  0  0  0  0  0  0  0  0  0  0  0
   -2.0136    2.4040    1.7197 H   0  0  0  0  0  0  0  0  0  0  0  0
   -0.7470    0.6575   -1.3024 H   0  0  0  0  0  0  0  0  0  0  0  0
    1.5166   -0.2641   -1.5691 H   0  0  0  0  0  0  0  0  0  0  0  0
    3.4969   -0.2763   -1.8062 H   0  0  0  0  0  0  0  0  0  0  0  0
    5.8550   -0.1325   -1.9463 H   0  0  0  0  0  0  0  0  0  0  0  0
    7.3598   -1.5196   -0.6024 H   0  0  0  0  0  0  0  0  0  0  0  0
    6.1066   -1.6048    0.7146 H   0  0  0  0  0  0  0  0  0  0  0  0
    7.6508    0.1012    1.1434 H   0  0  0  0  0  0  0  0  0  0  0  0
    6.0929    0.9122    0.8525 H   0  0  0  0  0  0  0  0  0  0  0  0
    8.6486    3.0077   -0.6074 H   0  0  0  0  0  0  0  0  0  0  0  0
    7.0045   -3.1872   -3.2772 H   0  0  0  0  0  0  0  0  0  0  0  0
    2.4273    0.8438    2.4058 H   0  0  0  0  0  0  0  0  0  0  0  0
    0.0957    1.7751    2.6682 H   0  0  0  0  0  0  0  0  0  0  0  0
   -3.8667   -0.6071   -1.8144 H   0  0  0  0  0  0  0  0  0  0  0  0
  1  2  1  0
  2  3  2  0
  3  4  1  0
  4  5  2  0
  4  6  1  0
  6  7  2  0
  7  8  1  0
  7  9  1  0
  9 10  1  0
 10 11  1  0
 11 12  1  0
 12 13  1  0
 13 14  1  0
 14 15  2  0
 15 16  1  0
 16 17  2  0
 17 18  1  0
 18 19  2  0
 18 20  1  0
 20 21  1  0
 21 22  1  0
 22 23  1  0
 23 24  1  0
 24 25  2  0
 24 26  1  0
 21 27  1  0
 27 28  2  0
 27 29  1  0
 17 30  1  0
 30 31  2  0
 11 32  1  0
  8  2  1  0
 31 14  1  0
 32  6  1  0
  1 33  1  0
  1 34  1  0
  8 35  1  0
  9 36  1  0
 10 37  1  0
 10 38  1  0
 11 39  1  6
 12 40  1  0
 12 41  1  0
 13 42  1  0
 15 43  1  0
 16 44  1  0
 20 45  1  0
 21 46  1  6
 22 47  1  0
 22 48  1  0
 23 49  1  0
 23 50  1  0
 26 51  1  0
 29 52  1  0
 30 53  1  0
 31 54  1  0
 32 55  1  0
M  END
$$$$

     RDKit          3D

 55 57  0  0  0  0  0  0  0  0999 V2000
   -8.3213    2.6313    0.9181 N   0  0  0  0  0  0  0  0  0  0  0  0
   -7.3306    1.7646    0.3653 C   0  0  0  0  0  0  0  0  0  0  0  0
   -6.4980    2.1756   -0.6091 N   0  0  0  0  0  0  0  0  0  0  0  0
   -5.5504    1.4078   -1.1651 C   0  0  0  0  0  0  0  0  0  0  0  0
   -4.7712    1.7953   -2.0784 O   0  0  0  0  0  0  0  0  0  0  0  0
   -5.4051    0.1146   -0.7240 C   0  0  0  0  0  0  0  0  0  0  0  0
   -6.2540   -0.3117    0.2730 C   0  0  0  0  0  0  0  0  0  0  0  0
   -7.1903    0.4984    0.7991 N   0  0  0  0  0  0  0  0  0  0  0  0
   -6.0917   -1.6607    0.7262 N   0  0  0  0  0  0  0  0  0  0  0  0
   -4.8490   -2.3710    0.6131 C   0  0  0  0  0  0  0  0  0  0  0  0
   -3.9782   -1.9103   -0.4975 C   0  0  2  0  0  0  0  0  0  0  0  0
   -2.6119   -1.5429    0.0916 C   0  0  0  0  0  0  0  0  0  0  0  0
   -1.7386   -1.0906   -0.9601 N   0  0  0  0  0  0  0  0  0  0  0  0
   -0.4246   -0.7051   -0.6594 C   0  0  0  0  0  0  0  0  0  0  0  0
    0.0344   -0.7559    0.6318 C   0  0  0  0  0  0  0  0  0  0  0  0
    1.3273   -0.3772    0.9223 C   0  0  0  0  0  0  0  0  0  0  0  0
    2.2232    0.0691   -0.0554 C   0  0  0  0  0  0  0  0  0  0  0  0
    3.5583    0.4418    0.3532 C   0  0  0  0  0  0  0  0  0  0  0  0
    3.9155    0.3495    1.5521 O   0  0  0  0  0  0  0  0  0  0  0  0
    4.4824    0.9167   -0.5950 N   0  0  0  0  0  0  0  0  0  0  0  0
    5.8429    1.3104   -0.2569 C   0  0  1  0  0  0  0  0  0  0  0  0
    6.7861    0.4963   -1.1243 C   0  0  0  0  0  0  0  0  0  0  0  0
    6.5664   -0.9645   -0.8375 C   0  0  0  0  0  0  0  0  0  0  0  0
    6.8223   -1.3755    0.5387 C   0  0  0  0  0  0  0  0  0  0  0  0
    6.5834   -2.5946    0.8418 O   0  0  0  0  0  0  0  0  0  0  0  0
    7.2972   -0.5865    1.5526 O   0  0  0  0  0  0  0  0  0  0  0  0
    5.9769    2.7529   -0.5430 C   0  0  0  0  0  0  0  0  0  0  0  0
    5.0085    3.3916   -0.9949 O   0  0  0  0  0  0  0  0  0  0  0  0
    7.1639    3.4212   -0.3193 O   0  0  0  0  0  0  0  0  0  0  0  0
    1.7258    0.1053   -1.3329 C   0  0  0  0  0  0  0  0  0  0  0  0
    0.4241   -0.2730   -1.6442 C   0  0  0  0  0  0  0  0  0  0  0  0
   -4.4424   -0.7841   -1.2407 N   0  0  0  0  0  0  0  0  0  0  0  0
   -9.3306    2.4226    0.9442 H   0  0  0  0  0  0  0  0  0  0  0  0
   -7.9944    3.5355    1.3213 H   0  0  0  0  0  0  0  0  0  0  0  0
   -7.8182    0.1337    1.5582 H   0  0  0  0  0  0  0  0  0  0  0  0
   -6.9022   -2.1393    1.1514 H   0  0  0  0  0  0  0  0  0  0  0  0
   -5.0185   -3.4748    0.4951 H   0  0  0  0  0  0  0  0  0  0  0  0
   -4.3398   -2.2737    1.6158 H   0  0  0  0  0  0  0  0  0  0  0  0
   -3.7414   -2.7336   -1.2312 H   0  0  0  0  0  0  0  0  0  0  0  0
   -2.7980   -0.6949    0.7782 H   0  0  0  0  0  0  0  0  0  0  0  0
   -2.2026   -2.4308    0.6038 H   0  0  0  0  0  0  0  0  0  0  0  0
   -2.0806   -1.0502   -1.9360 H   0  0  0  0  0  0  0  0  0  0  0  0
   -0.6298   -1.0993    1.4403 H   0  0  0  0  0  0  0  0  0  0  0  0
    1.6834   -0.4199    1.9446 H   0  0  0  0  0  0  0  0  0  0  0  0
    4.2261    1.0071   -1.5957 H   0  0  0  0  0  0  0  0  0  0  0  0
    6.0076    1.1725    0.8131 H   0  0  0  0  0  0  0  0  0  0  0  0
    7.8396    0.8097   -0.9718 H   0  0  0  0  0  0  0  0  0  0  0  0
    6.4931    0.6598   -2.1846 H   0  0  0  0  0  0  0  0  0  0  0  0
    7.1826   -1.5291   -1.5694 H   0  0  0  0  0  0  0  0  0  0  0  0
    5.5003   -1.1753   -1.1411 H   0  0  0  0  0  0  0  0  0  0  0  0
    7.9264   -0.9216    2.2833 H   0  0  0  0  0  0  0  0  0  0  0  0
    7.3262    4.2671   -0.8878 H   0  0  0  0  0  0  0  0  0  0  0  0
    2.3845    0.4452   -2.1252 H   0  0  0  0  0  0  0  0  0  0  0  0
    0.0670   -0.2320   -2.6571 H   0  0  0  0  0  0  0  0  0  0  0  0
   -4.0621   -0.6177   -2.1925 H   0  0  0  0  0  0  0  0  0  0  0  0
  1  2  1  0
  2  3  2  0
  3  4  1  0
  4  5  2  0
  4  6  1  0
  6  7  2  0
  7  8  1  0
  7  9  1  0
  9 10  1  0
 10 11  1  0
 11 12  1  0
 12 13  1  0
 13 14  1  0
 14 15  2  0
 15 16  1  0
 16 17  2  0
 17 18  1  0
 18 19  2  0
 18 20  1  0
 20 21  1  0
 21 22  1  0
 22 23  1  0
 23 24  1  0
 24 25  2  0
 24 26  1  0
 21 27  1  0
 27 28  2  0
 27 29  1  0
 17 30  1  0
 30 31  2  0
 11 32  1  0
  8  2  1  0
 31 14  1  0
 32  6  1  0
  1 33  1  0
  1 34  1  0
  8 35  1  0
  9 36  1  0
 10 37  1  0
 10 38  1  0
 11 39  1  6
 12 40  1  0
 12 41  1  0
 13 42  1  0
 15 43  1  0
 16 44  1  0
 20 45  1  0
 21 46  1  1
 22 47  1  0
 22 48  1  0
 23 49  1  0
 23 50  1  0
 26 51  1  0
 29 52  1  0
 30 53  1  0
 31 54  1  0
 32 55  1  0
M  END
$$$$

     RDKit          3D

 55 57  0  0  0  0  0  0  0  0999 V2000
  -10.1121   -0.8945   -0.7351 N   0  0  0  0  0  0  0  0  0  0  0  0
   -8.7348   -0.8007   -0.3517 C   0  0  0  0  0  0  0  0  0  0  0  0
   -8.0408   -1.8718    0.0725 N   0  0  0  0  0  0  0  0  0  0  0  0
   -6.7468   -1.7662    0.4294 C   0  0  0  0  0  0  0  0  0  0  0  0
   -6.0707   -2.7591    0.8322 O   0  0  0  0  0  0  0  0  0  0  0  0
   -6.0714   -0.5574    0.3778 C   0  0  0  0  0  0  0  0  0  0  0  0
   -6.7957    0.5321   -0.0590 C   0  0  0  0  0  0  0  0  0  0  0  0
   -8.0855    0.3822   -0.4056 N   0  0  0  0  0  0  0  0  0  0  0  0
   -6.1048    1.7751   -0.1144 N   0  0  0  0  0  0  0  0  0  0  0  0
   -4.6533    1.8744    0.0207 C   0  0  0  0  0  0  0  0  0  0  0  0
   -4.2260    0.9226    1.0870 C   0  0  2  0  0  0  0  0  0  0  0  0
   -2.7631    0.9214    1.3708 C   0  0  0  0  0  0  0  0  0  0  0  0
   -1.9627    0.5679    0.2197 N   0  0  0  0  0  0  0  0  0  0  0  0
   -0.5496    0.4935    0.2968 C   0  0  0  0  0  0  0  0  0  0  0  0
    0.1426    0.7375    1.4605 C   0  0  0  0  0  0  0  0  0  0  0  0
    1.5222    0.6558    1.5078 C   0  0  0  0  0  0  0  0  0  0  0  0
    2.2726    0.3265    0.3930 C   0  0  0  0  0  0  0  0  0  0  0  0
    3.7372    0.2454    0.4744 C   0  0  0  0  0  0  0  0  0  0  0  0
    4.3011    0.3999    1.6005 O   0  0  0  0  0  0  0  0  0  0  0  0
    4.5747    0.0024   -0.6394 N   0  0  0  0  0  0  0  0  0  0  0  0
    6.0423   -0.0702   -0.5073 C   0  0  1  0  0  0  0  0  0  0  0  0
    6.4908   -1.4401   -0.8944 C   0  0  0  0  0  0  0  0  0  0  0  0
    7.9621   -1.6819   -0.8165 C   0  0  0  0  0  0  0  0  0  0  0  0
    8.5421   -1.5089    0.5287 C   0  0  0  0  0  0  0  0  0  0  0  0
    7.8892   -1.2022    1.5537 O   0  0  0  0  0  0  0  0  0  0  0  0
    9.9192   -1.6920    0.7154 O   0  0  0  0  0  0  0  0  0  0  0  0
    6.6801    1.0022   -1.2821 C   0  0  0  0  0  0  0  0  0  0  0  0
    5.9626    1.8143   -1.9436 O   0  0  0  0  0  0  0  0  0  0  0  0
    8.0513    1.1910   -1.3395 O   0  0  0  0  0  0  0  0  0  0  0  0
    1.5859    0.0815   -0.7736 C   0  0  0  0  0  0  0  0  0  0  0  0
    0.1922    0.1650   -0.8170 C   0  0  0  0  0  0  0  0  0  0  0  0
   -4.7150   -0.4049    0.7436 N   0  0  0  0  0  0  0  0  0  0  0  0
  -10.6956   -0.0355   -0.6361 H   0  0  0  0  0  0  0  0  0  0  0  0
  -10.5602   -1.7520   -1.1003 H   0  0  0  0  0  0  0  0  0  0  0  0
   -8.6285    1.2104   -0.7356 H   0  0  0  0  0  0  0  0  0  0  0  0
   -6.7126    2.6236   -0.2603 H   0  0  0  0  0  0  0  0  0  0  0  0
   -4.1413    1.6884   -0.9509 H   0  0  0  0  0  0  0  0  0  0  0  0
   -4.4634    2.9404    0.3071 H   0  0  0  0  0  0  0  0  0  0  0  0
   -4.7479    1.2045    2.0280 H   0  0  0  0  0  0  0  0  0  0  0  0
   -2.5878    0.2157    2.2212 H   0  0  0  0  0  0  0  0  0  0  0  0
   -2.4963    1.9285    1.7693 H   0  0  0  0  0  0  0  0  0  0  0  0
   -2.4649    0.3693   -0.6711 H   0  0  0  0  0  0  0  0  0  0  0  0
   -0.4260    0.9974    2.3425 H   0  0  0  0  0  0  0  0  0  0  0  0
    2.0658    0.8464    2.4225 H   0  0  0  0  0  0  0  0  0  0  0  0
    4.1289   -0.1277   -1.5831 H   0  0  0  0  0  0  0  0  0  0  0  0
    6.2595    0.0997    0.5650 H   0  0  0  0  0  0  0  0  0  0  0  0
    6.1954   -1.6301   -1.9609 H   0  0  0  0  0  0  0  0  0  0  0  0
    5.9710   -2.2398   -0.3086 H   0  0  0  0  0  0  0  0  0  0  0  0
    8.5132   -1.0687   -1.5645 H   0  0  0  0  0  0  0  0  0  0  0  0
    8.1194   -2.7421   -1.1798 H   0  0  0  0  0  0  0  0  0  0  0  0
   10.2742   -2.1449    1.5686 H   0  0  0  0  0  0  0  0  0  0  0  0
    8.4944    1.6537   -2.1324 H   0  0  0  0  0  0  0  0  0  0  0  0
    2.1107   -0.1804   -1.6793 H   0  0  0  0  0  0  0  0  0  0  0  0
   -0.3419   -0.0315   -1.7497 H   0  0  0  0  0  0  0  0  0  0  0  0
   -4.1021   -1.2656    0.7544 H   0  0  0  0  0  0  0  0  0  0  0  0
  1  2  1  0
  2  3  2  0
  3  4  1  0
  4  5  2  0
  4  6  1  0
  6  7  2  0
  7  8  1  0
  7  9  1  0
  9 10  1  0
 10 11  1  0
 11 12  1  0
 12 13  1  0
 13 14  1  0
 14 15  2  0
 15 16  1  0
 16 17  2  0
 17 18  1  0
 18 19  2  0
 18 20  1  0
 20 21  1  0
 21 22  1  0
 22 23  1  0
 23 24  1  0
 24 25  2  0
 24 26  1  0
 21 27  1  0
 27 28  2  0
 27 29  1  0
 17 30  1  0
 30 31  2  0
 11 32  1  0
  8  2  1  0
 31 14  1  0
 32  6  1  0
  1 33  1  0
  1 34  1  0
  8 35  1  0
  9 36  1  0
 10 37  1  0
 10 38  1  0
 11 39  1  1
 12 40  1  0
 12 41  1  0
 13 42  1  0
 15 43  1  0
 16 44  1  0
 20 45  1  0
 21 46  1  1
 22 47  1  0
 22 48  1  0
 23 49  1  0
 23 50  1  0
 26 51  1  0
 29 52  1  0
 30 53  1  0
 31 54  1  0
 32 55  1  0
M  END
$$$$

     RDKit          3D

 55 57  0  0  0  0  0  0  0  0999 V2000
    9.2226    0.6745   -0.2987 N   0  0  0  0  0  0  0  0  0  0  0  0
    7.8262    0.7000   -0.0729 C   0  0  0  0  0  0  0  0  0  0  0  0
    7.0984    1.8163   -0.3522 N   0  0  0  0  0  0  0  0  0  0  0  0
    5.7838    1.8893   -0.1574 C   0  0  0  0  0  0  0  0  0  0  0  0
    5.1134    2.9394   -0.4226 O   0  0  0  0  0  0  0  0  0  0  0  0
    5.1134    0.7932    0.3497 C   0  0  0  0  0  0  0  0  0  0  0  0
    5.8229   -0.3547    0.6434 C   0  0  0  0  0  0  0  0  0  0  0  0
    7.1451   -0.3524    0.4202 N   0  0  0  0  0  0  0  0  0  0  0  0
    5.1459   -1.5140    1.1738 N   0  0  0  0  0  0  0  0  0  0  0  0
    3.8260   -1.2853    1.7632 C   0  0  0  0  0  0  0  0  0  0  0  0
    3.0423   -0.4693    0.7526 C   0  0  2  0  0  0  0  0  0  0  0  0
    3.0809   -1.1477   -0.6136 C   0  0  0  0  0  0  0  0  0  0  0  0
    2.3177   -0.3307   -1.5156 N   0  0  0  0  0  0  0  0  0  0  0  0
    0.9246   -0.2023   -1.3492 C   0  0  0  0  0  0  0  0  0  0  0  0
    0.2003    0.7710   -2.0182 C   0  0  0  0  0  0  0  0  0  0  0  0
   -1.1551    0.8511   -1.8424 C   0  0  0  0  0  0  0  0  0  0  0  0
   -1.8889    0.0036   -1.0168 C   0  0  0  0  0  0  0  0  0  0  0  0
   -3.3359    0.1467   -0.8775 C   0  0  0  0  0  0  0  0  0  0  0  0
   -3.8973    1.0229   -1.5851 O   0  0  0  0  0  0  0  0  0  0  0  0
   -4.0572   -0.6716    0.0183 N   0  0  0  0  0  0  0  0  0  0  0  0
   -5.5094   -0.4681    0.0977 C   0  0  1  0  0  0  0  0  0  0  0  0
   -5.7486    0.8595    0.7244 C   0  0  0  0  0  0  0  0  0  0  0  0
   -7.1734    1.2571    0.8957 C   0  0  0  0  0  0  0  0  0  0  0  0
   -7.9631    0.3531    1.7456 C   0  0  0  0  0  0  0  0  0  0  0  0
   -9.1959    0.6359    1.8728 O   0  0  0  0  0  0  0  0  0  0  0  0
   -7.4661   -0.7536    2.3979 O   0  0  0  0  0  0  0  0  0  0  0  0
   -6.1009   -0.6403   -1.2491 C   0  0  0  0  0  0  0  0  0  0  0  0
   -5.4380   -0.9376   -2.2678 O   0  0  0  0  0  0  0  0  0  0  0  0
   -7.4672   -0.4628   -1.3924 O   0  0  0  0  0  0  0  0  0  0  0  0
   -1.1557   -0.9544   -0.3625 C   0  0  0  0  0  0  0  0  0  0  0  0
    0.2319   -1.0539   -0.5284 C   0  0  0  0  0  0  0  0  0  0  0  0
    3.7112    0.8226    0.5761 N   0  0  0  0  0  0  0  0  0  0  0  0
    9.8329    1.3496    0.1722 H   0  0  0  0  0  0  0  0  0  0  0  0
    9.6154   -0.0335   -0.9438 H   0  0  0  0  0  0  0  0  0  0  0  0
    7.6789   -1.2260    0.6449 H   0  0  0  0  0  0  0  0  0  0  0  0
    5.6037   -2.4335    1.1195 H   0  0  0  0  0  0  0  0  0  0  0  0
    3.2825   -2.2379    1.9070 H   0  0  0  0  0  0  0  0  0  0  0  0
    3.8812   -0.6810    2.6850 H   0  0  0  0  0  0  0  0  0  0  0  0
    2.0400   -0.3028    1.1362 H   0  0  0  0  0  0  0  0  0  0  0  0
    4.1501   -1.2301   -0.9329 H   0  0  0  0  0  0  0  0  0  0  0  0
    2.6018   -2.1430   -0.5567 H   0  0  0  0  0  0  0  0  0  0  0  0
    2.7712    0.1794   -2.3035 H   0  0  0  0  0  0  0  0  0  0  0  0
    0.7324    1.4493   -2.6690 H   0  0  0  0  0  0  0  0  0  0  0  0
   -1.7481    1.6189   -2.3660 H   0  0  0  0  0  0  0  0  0  0  0  0
   -3.6214   -1.4033    0.6199 H   0  0  0  0  0  0  0  0  0  0  0  0
   -5.9412   -1.2787    0.7456 H   0  0  0  0  0  0  0  0  0  0  0  0
   -5.2509    0.8265    1.7334 H   0  0  0  0  0  0  0  0  0  0  0  0
   -5.2293    1.6863    0.1931 H   0  0  0  0  0  0  0  0  0  0  0  0
   -7.6541    1.4545   -0.0848 H   0  0  0  0  0  0  0  0  0  0  0  0
   -7.1577    2.2507    1.4291 H   0  0  0  0  0  0  0  0  0  0  0  0
   -7.9865   -1.0755    3.2166 H   0  0  0  0  0  0  0  0  0  0  0  0
   -7.9079   -0.8852   -2.2009 H   0  0  0  0  0  0  0  0  0  0  0  0
   -1.6703   -1.6536    0.3016 H   0  0  0  0  0  0  0  0  0  0  0  0
    0.7219   -1.8658    0.0331 H   0  0  0  0  0  0  0  0  0  0  0  0
    3.2017    1.7275    0.6115 H   0  0  0  0  0  0  0  0  0  0  0  0
  1  2  1  0
  2  3  2  0
  3  4  1  0
  4  5  2  0
  4  6  1  0
  6  7  2  0
  7  8  1  0
  7  9  1  0
  9 10  1  0
 10 11  1  0
 11 12  1  0
 12 13  1  0
 13 14  1  0
 14 15  2  0
 15 16  1  0
 16 17  2  0
 17 18  1  0
 18 19  2  0
 18 20  1  0
 20 21  1  0
 21 22  1  0
 22 23  1  0
 23 24  1  0
 24 25  2  0
 24 26  1  0
 21 27  1  0
 27 28  2  0
 27 29  1  0
 17 30  1  0
 30 31  2  0
 11 32  1  0
  8  2  1  0
 31 14  1  0
 32  6  1  0
  1 33  1  0
  1 34  1  0
  8 35  1  0
  9 36  1  0
 10 37  1  0
 10 38  1  0
 11 39  1  1
 12 40  1  0
 12 41  1  0
 13 42  1  0
 15 43  1  0
 16 44  1  0
 20 45  1  0
 21 46  1  1
 22 47  1  0
 22 48  1  0
 23 49  1  0
 23 50  1  0
 26 51  1  0
 29 52  1  0
 30 53  1  0
 31 54  1  0
 32 55  1  0
M  END
$$$$

     RDKit          3D

 55 57  0  0  0  0  0  0  0  0999 V2000
    9.0809   -1.6255    0.1869 N   0  0  0  0  0  0  0  0  0  0  0  0
    7.7472   -1.1520    0.3222 C   0  0  0  0  0  0  0  0  0  0  0  0
    7.1493   -1.1024    1.5316 N   0  0  0  0  0  0  0  0  0  0  0  0
    5.8815   -0.6581    1.7075 C   0  0  0  0  0  0  0  0  0  0  0  0
    5.3277   -0.6129    2.8325 O   0  0  0  0  0  0  0  0  0  0  0  0
    5.1512   -0.2324    0.6118 C   0  0  0  0  0  0  0  0  0  0  0  0
    5.7662   -0.2849   -0.6214 C   0  0  0  0  0  0  0  0  0  0  0  0
    7.0092   -0.7303   -0.7244 N   0  0  0  0  0  0  0  0  0  0  0  0
    4.9914    0.1647   -1.7340 N   0  0  0  0  0  0  0  0  0  0  0  0
    3.9971    1.2019   -1.5798 C   0  0  0  0  0  0  0  0  0  0  0  0
    3.1016    0.8518   -0.4296 C   0  0  2  0  0  0  0  0  0  0  0  0
    2.5183    2.1541    0.0841 C   0  0  0  0  0  0  0  0  0  0  0  0
    1.6244    1.9960    1.1924 N   0  0  0  0  0  0  0  0  0  0  0  0
    0.3586    1.3835    1.1156 C   0  0  0  0  0  0  0  0  0  0  0  0
   -0.1944    1.1116   -0.1137 C   0  0  0  0  0  0  0  0  0  0  0  0
   -1.4490    0.4927   -0.1550 C   0  0  0  0  0  0  0  0  0  0  0  0
   -2.1632    0.1401    0.9446 C   0  0  0  0  0  0  0  0  0  0  0  0
   -3.4776   -0.5031    0.8630 C   0  0  0  0  0  0  0  0  0  0  0  0
   -4.0956   -0.8486    1.9070 O   0  0  0  0  0  0  0  0  0  0  0  0
   -4.0965   -0.7583   -0.3618 N   0  0  0  0  0  0  0  0  0  0  0  0
   -5.4173   -1.4007   -0.4964 C   0  0  1  0  0  0  0  0  0  0  0  0
   -6.2439   -0.4366   -1.3029 C   0  0  0  0  0  0  0  0  0  0  0  0
   -6.4232    0.9099   -0.7010 C   0  0  0  0  0  0  0  0  0  0  0  0
   -7.1254    0.8088    0.5892 C   0  0  0  0  0  0  0  0  0  0  0  0
   -7.2560    1.8052    1.3754 O   0  0  0  0  0  0  0  0  0  0  0  0
   -7.6709   -0.3883    0.9852 O   0  0  0  0  0  0  0  0  0  0  0  0
   -5.2136   -2.6217   -1.3041 C   0  0  0  0  0  0  0  0  0  0  0  0
   -4.0849   -2.9245   -1.7185 O   0  0  0  0  0  0  0  0  0  0  0  0
   -6.2918   -3.4306   -1.5984 O   0  0  0  0  0  0  0  0  0  0  0  0
   -1.5956    0.4195    2.1917 C   0  0  0  0  0  0  0  0  0  0  0  0
   -0.3635    1.0271    2.2528 C   0  0  0  0  0  0  0  0  0  0  0  0
    3.8218    0.2474    0.6755 N   0  0  0  0  0  0  0  0  0  0  0  0
    9.8311   -1.0376   -0.2855 H   0  0  0  0  0  0  0  0  0  0  0  0
    9.4041   -2.5577    0.5332 H   0  0  0  0  0  0  0  0  0  0  0  0
    7.4355   -0.7539   -1.6775 H   0  0  0  0  0  0  0  0  0  0  0  0
    5.1913   -0.3029   -2.6680 H   0  0  0  0  0  0  0  0  0  0  0  0
    4.4649    2.2087   -1.4052 H   0  0  0  0  0  0  0  0  0  0  0  0
    3.4057    1.2043   -2.5268 H   0  0  0  0  0  0  0  0  0  0  0  0
    2.3246    0.1706   -0.8166 H   0  0  0  0  0  0  0  0  0  0  0  0
    2.0371    2.6525   -0.7924 H   0  0  0  0  0  0  0  0  0  0  0  0
    3.3524    2.8270    0.3736 H   0  0  0  0  0  0  0  0  0  0  0  0
    1.9051    2.3558    2.1564 H   0  0  0  0  0  0  0  0  0  0  0  0
    0.3296    1.3811   -1.0140 H   0  0  0  0  0  0  0  0  0  0  0  0
   -1.8213    0.3088   -1.1552 H   0  0  0  0  0  0  0  0  0  0  0  0
   -3.6511   -0.5038   -1.2585 H   0  0  0  0  0  0  0  0  0  0  0  0
   -5.8261   -1.6248    0.5047 H   0  0  0  0  0  0  0  0  0  0  0  0
   -5.8176   -0.3082   -2.3270 H   0  0  0  0  0  0  0  0  0  0  0  0
   -7.2581   -0.9074   -1.4522 H   0  0  0  0  0  0  0  0  0  0  0  0
   -7.0409    1.5510   -1.3832 H   0  0  0  0  0  0  0  0  0  0  0  0
   -5.4662    1.4707   -0.5842 H   0  0  0  0  0  0  0  0  0  0  0  0
   -8.0889   -0.5588    1.8864 H   0  0  0  0  0  0  0  0  0  0  0  0
   -6.3037   -4.1238   -2.3306 H   0  0  0  0  0  0  0  0  0  0  0  0
   -2.1712    0.1357    3.0653 H   0  0  0  0  0  0  0  0  0  0  0  0
    0.0835    1.2470    3.2142 H   0  0  0  0  0  0  0  0  0  0  0  0
    3.3165    0.1622    1.5835 H   0  0  0  0  0  0  0  0  0  0  0  0
  1  2  1  0
  2  3  2  0
  3  4  1  0
  4  5  2  0
  4  6  1  0
  6  7  2  0
  7  8  1  0
  7  9  1  0
  9 10  1  0
 10 11  1  0
 11 12  1  0
 12 13  1  0
 13 14  1  0
 14 15  2  0
 15 16  1  0
 16 17  2  0
 17 18  1  0
 18 19  2  0
 18 20  1  0
 20 21  1  0
 21 22  1  0
 22 23  1  0
 23 24  1  0
 24 25  2  0
 24 26  1  0
 21 27  1  0
 27 28  2  0
 27 29  1  0
 17 30  1  0
 30 31  2  0
 11 32  1  0
  8  2  1  0
 31 14  1  0
 32  6  1  0
  1 33  1  0
  1 34  1  0
  8 35  1  0
  9 36  1  0
 10 37  1  0
 10 38  1  0
 11 39  1  6
 12 40  1  0
 12 41  1  0
 13 42  1  0
 15 43  1  0
 16 44  1  0
 20 45  1  0
 21 46  1  1
 22 47  1  0
 22 48  1  0
 23 49  1  0
 23 50  1  0
 26 51  1  0
 29 52  1  0
 30 53  1  0
 31 54  1  0
 32 55  1  0
M  END
$$$$

     RDKit          3D

 55 57  0  0  0  0  0  0  0  0999 V2000
   -8.9483   -1.5227   -1.9720 N   0  0  0  0  0  0  0  0  0  0  0  0
   -7.5831   -1.1855   -1.7006 C   0  0  0  0  0  0  0  0  0  0  0  0
   -6.8588   -0.4246   -2.5341 N   0  0  0  0  0  0  0  0  0  0  0  0
   -5.5833   -0.1139   -2.2731 C   0  0  0  0  0  0  0  0  0  0  0  0
   -4.8740    0.5933   -3.0265 O   0  0  0  0  0  0  0  0  0  0  0  0
   -4.9879   -0.5893   -1.1085 C   0  0  0  0  0  0  0  0  0  0  0  0
   -5.7493   -1.3601   -0.2801 C   0  0  0  0  0  0  0  0  0  0  0  0
   -7.0269   -1.6557   -0.5684 N   0  0  0  0  0  0  0  0  0  0  0  0
   -5.1364   -1.8459    0.9157 N   0  0  0  0  0  0  0  0  0  0  0  0
   -3.7206   -1.9083    1.0882 C   0  0  0  0  0  0  0  0  0  0  0  0
   -2.9979   -0.7394    0.4503 C   0  0  2  0  0  0  0  0  0  0  0  0
   -2.9341    0.3516    1.4702 C   0  0  0  0  0  0  0  0  0  0  0  0
   -2.2650    1.5478    1.0307 N   0  0  0  0  0  0  0  0  0  0  0  0
   -0.8689    1.6296    0.7492 C   0  0  0  0  0  0  0  0  0  0  0  0
    0.0178    0.6250    1.0535 C   0  0  0  0  0  0  0  0  0  0  0  0
    1.3784    0.7340    0.7509 C   0  0  0  0  0  0  0  0  0  0  0  0
    1.8860    1.8633    0.1310 C   0  0  0  0  0  0  0  0  0  0  0  0
    3.2970    2.0151   -0.2115 C   0  0  0  0  0  0  0  0  0  0  0  0
    3.7341    3.1267   -0.5407 O   0  0  0  0  0  0  0  0  0  0  0  0
    4.2051    0.9040   -0.1800 N   0  0  0  0  0  0  0  0  0  0  0  0
    5.5966    1.0270   -0.5118 C   0  0  1  0  0  0  0  0  0  0  0  0
    6.4989    0.6259    0.6347 C   0  0  0  0  0  0  0  0  0  0  0  0
    6.2712   -0.8113    1.0468 C   0  0  0  0  0  0  0  0  0  0  0  0
    7.2048   -1.0993    2.1737 C   0  0  0  0  0  0  0  0  0  0  0  0
    8.0034   -0.2841    2.6460 O   0  0  0  0  0  0  0  0  0  0  0  0
    7.1660   -2.3776    2.7253 O   0  0  0  0  0  0  0  0  0  0  0  0
    5.9337    0.2422   -1.7488 C   0  0  0  0  0  0  0  0  0  0  0  0
    5.0600   -0.4179   -2.3657 O   0  0  0  0  0  0  0  0  0  0  0  0
    7.2243    0.2177   -2.2570 O   0  0  0  0  0  0  0  0  0  0  0  0
    0.9962    2.8608   -0.1683 C   0  0  0  0  0  0  0  0  0  0  0  0
   -0.3484    2.7617    0.1263 C   0  0  0  0  0  0  0  0  0  0  0  0
   -3.6487   -0.3027   -0.7715 N   0  0  0  0  0  0  0  0  0  0  0  0
   -9.6383   -1.5503   -1.2032 H   0  0  0  0  0  0  0  0  0  0  0  0
   -9.2331   -1.7369   -2.9408 H   0  0  0  0  0  0  0  0  0  0  0  0
   -7.5588   -2.2454    0.0968 H   0  0  0  0  0  0  0  0  0  0  0  0
   -5.7652   -2.1610    1.6779 H   0  0  0  0  0  0  0  0  0  0  0  0
   -3.3574   -2.8613    0.6851 H   0  0  0  0  0  0  0  0  0  0  0  0
   -3.4922   -1.8986    2.1691 H   0  0  0  0  0  0  0  0  0  0  0  0
   -1.9986   -1.1013    0.1643 H   0  0  0  0  0  0  0  0  0  0  0  0
   -2.4107   -0.0482    2.3681 H   0  0  0  0  0  0  0  0  0  0  0  0
   -3.9708    0.5886    1.8202 H   0  0  0  0  0  0  0  0  0  0  0  0
   -2.8750    2.4144    0.9169 H   0  0  0  0  0  0  0  0  0  0  0  0
   -0.3090   -0.2784    1.5459 H   0  0  0  0  0  0  0  0  0  0  0  0
    2.0134   -0.0819    1.0153 H   0  0  0  0  0  0  0  0  0  0  0  0
    3.7943   -0.0125    0.1011 H   0  0  0  0  0  0  0  0  0  0  0  0
    5.8106    2.0856   -0.7407 H   0  0  0  0  0  0  0  0  0  0  0  0
    6.2532    1.2613    1.4962 H   0  0  0  0  0  0  0  0  0  0  0  0
    7.5347    0.7184    0.3095 H   0  0  0  0  0  0  0  0  0  0  0  0
    5.2434   -1.0137    1.3754 H   0  0  0  0  0  0  0  0  0  0  0  0
    6.5178   -1.5334    0.2411 H   0  0  0  0  0  0  0  0  0  0  0  0
    7.8309   -2.7404    3.3724 H   0  0  0  0  0  0  0  0  0  0  0  0
    7.4315    0.1049   -3.2530 H   0  0  0  0  0  0  0  0  0  0  0  0
    1.3656    3.7657   -0.6570 H   0  0  0  0  0  0  0  0  0  0  0  0
   -1.0244    3.5717   -0.1246 H   0  0  0  0  0  0  0  0  0  0  0  0
   -3.1033    0.2651   -1.4654 H   0  0  0  0  0  0  0  0  0  0  0  0
  1  2  1  0
  2  3  2  0
  3  4  1  0
  4  5  2  0
  4  6  1  0
  6  7  2  0
  7  8  1  0
  7  9  1  0
  9 10  1  0
 10 11  1  0
 11 12  1  0
 12 13  1  0
 13 14  1  0
 14 15  2  0
 15 16  1  0
 16 17  2  0
 17 18  1  0
 18 19  2  0
 18 20  1  0
 20 21  1  0
 21 22  1  0
 22 23  1  0
 23 24  1  0
 24 25  2  0
 24 26  1  0
 21 27  1  0
 27 28  2  0
 27 29  1  0
 17 30  1  0
 30 31  2  0
 11 32  1  0
  8  2  1  0
 31 14  1  0
 32  6  1  0
  1 33  1  0
  1 34  1  0
  8 35  1  0
  9 36  1  0
 10 37  1  0
 10 38  1  0
 11 39  1  6
 12 40  1  0
 12 41  1  0
 13 42  1  0
 15 43  1  0
 16 44  1  0
 20 45  1  0
 21 46  1  6
 22 47  1  0
 22 48  1  0
 23 49  1  0
 23 50  1  0
 26 51  1  0
 29 52  1  0
 30 53  1  0
 31 54  1  0
 32 55  1  0
M  END
$$$$

     RDKit          3D

 55 57  0  0  0  0  0  0  0  0999 V2000
    9.5161   -0.5456    0.9574 N   0  0  0  0  0  0  0  0  0  0  0  0
    8.1861   -0.2422    0.6039 C   0  0  0  0  0  0  0  0  0  0  0  0
    7.9610    0.3602   -0.5788 N   0  0  0  0  0  0  0  0  0  0  0  0
    6.7098    0.6680   -0.9564 C   0  0  0  0  0  0  0  0  0  0  0  0
    6.4738    1.2287   -2.0506 O   0  0  0  0  0  0  0  0  0  0  0  0
    5.6974    0.3402   -0.0874 C   0  0  0  0  0  0  0  0  0  0  0  0
    5.9068   -0.2719    1.1180 C   0  0  0  0  0  0  0  0  0  0  0  0
    7.1936   -0.5598    1.4485 N   0  0  0  0  0  0  0  0  0  0  0  0
    4.8117   -0.5747    1.9547 N   0  0  0  0  0  0  0  0  0  0  0  0
    3.4755   -0.0763    1.7186 C   0  0  0  0  0  0  0  0  0  0  0  0
    3.2117    0.1522    0.2432 C   0  0  2  0  0  0  0  0  0  0  0  0
    2.7301   -1.1128   -0.4273 C   0  0  0  0  0  0  0  0  0  0  0  0
    1.5145   -1.6201    0.1158 N   0  0  0  0  0  0  0  0  0  0  0  0
    0.2698   -0.9547   -0.0424 C   0  0  0  0  0  0  0  0  0  0  0  0
   -0.8275   -1.3666    0.7036 C   0  0  0  0  0  0  0  0  0  0  0  0
   -2.0685   -0.7551    0.5651 C   0  0  0  0  0  0  0  0  0  0  0  0
   -2.2459    0.2843   -0.3227 C   0  0  0  0  0  0  0  0  0  0  0  0
   -3.5278    0.9546   -0.4866 C   0  0  0  0  0  0  0  0  0  0  0  0
   -3.6817    1.6752   -1.5057 O   0  0  0  0  0  0  0  0  0  0  0  0
   -4.5811    0.8329    0.4314 N   0  0  0  0  0  0  0  0  0  0  0  0
   -5.8517    1.4589    0.3324 C   0  0  1  0  0  0  0  0  0  0  0  0
   -6.9882    0.5198    0.2353 C   0  0  0  0  0  0  0  0  0  0  0  0
   -7.0559   -0.3974   -0.9074 C   0  0  0  0  0  0  0  0  0  0  0  0
   -6.0345   -1.4206   -1.0838 C   0  0  0  0  0  0  0  0  0  0  0  0
   -5.1608   -1.7295   -0.2681 O   0  0  0  0  0  0  0  0  0  0  0  0
   -6.0591   -2.1208   -2.3162 O   0  0  0  0  0  0  0  0  0  0  0  0
   -6.0667    2.4677    1.4069 C   0  0  0  0  0  0  0  0  0  0  0  0
   -5.1730    2.6519    2.2491 O   0  0  0  0  0  0  0  0  0  0  0  0
   -7.2392    3.1814    1.4605 O   0  0  0  0  0  0  0  0  0  0  0  0
   -1.1346    0.6653   -1.0460 C   0  0  0  0  0  0  0  0  0  0  0  0
    0.1105    0.0803   -0.9327 C   0  0  0  0  0  0  0  0  0  0  0  0
    4.3700    0.6492   -0.4578 N   0  0  0  0  0  0  0  0  0  0  0  0
   10.2337   -0.6974    0.2011 H   0  0  0  0  0  0  0  0  0  0  0  0
    9.8209   -0.6261    1.9422 H   0  0  0  0  0  0  0  0  0  0  0  0
    7.3989   -1.0264    2.3593 H   0  0  0  0  0  0  0  0  0  0  0  0
    4.9617   -1.1811    2.7795 H   0  0  0  0  0  0  0  0  0  0  0  0
    2.7503   -0.8221    2.0991 H   0  0  0  0  0  0  0  0  0  0  0  0
    3.3604    0.8630    2.2809 H   0  0  0  0  0  0  0  0  0  0  0  0
    2.4363    0.9427    0.2039 H   0  0  0  0  0  0  0  0  0  0  0  0
    2.5991   -0.9437   -1.5188 H   0  0  0  0  0  0  0  0  0  0  0  0
    3.5457   -1.8767   -0.3406 H   0  0  0  0  0  0  0  0  0  0  0  0
    1.5350   -2.5243    0.6563 H   0  0  0  0  0  0  0  0  0  0  0  0
   -0.7414   -2.1824    1.4185 H   0  0  0  0  0  0  0  0  0  0  0  0
   -2.8905   -1.1175    1.1725 H   0  0  0  0  0  0  0  0  0  0  0  0
   -4.4112    0.2414    1.2931 H   0  0  0  0  0  0  0  0  0  0  0  0
   -5.8342    2.0524   -0.6529 H   0  0  0  0  0  0  0  0  0  0  0  0
   -7.9379    1.1514    0.2698 H   0  0  0  0  0  0  0  0  0  0  0  0
   -7.0292   -0.1112    1.1919 H   0  0  0  0  0  0  0  0  0  0  0  0
   -7.0476    0.2176   -1.8680 H   0  0  0  0  0  0  0  0  0  0  0  0
   -8.0796   -0.9165   -0.9061 H   0  0  0  0  0  0  0  0  0  0  0  0
   -5.6991   -3.0822   -2.3386 H   0  0  0  0  0  0  0  0  0  0  0  0
   -7.3430    4.0336    1.9666 H   0  0  0  0  0  0  0  0  0  0  0  0
   -1.2423    1.4797   -1.7509 H   0  0  0  0  0  0  0  0  0  0  0  0
    0.9545    0.4363   -1.5515 H   0  0  0  0  0  0  0  0  0  0  0  0
    4.2173    1.2670   -1.2791 H   0  0  0  0  0  0  0  0  0  0  0  0
  1  2  1  0
  2  3  2  0
  3  4  1  0
  4  5  2  0
  4  6  1  0
  6  7  2  0
  7  8  1  0
  7  9  1  0
  9 10  1  0
 10 11  1  0
 11 12  1  0
 12 13  1  0
 13 14  1  0
 14 15  2  0
 15 16  1  0
 16 17  2  0
 17 18  1  0
 18 19  2  0
 18 20  1  0
 20 21  1  0
 21 22  1  0
 22 23  1  0
 23 24  1  0
 24 25  2  0
 24 26  1  0
 21 27  1  0
 27 28  2  0
 27 29  1  0
 17 30  1  0
 30 31  2  0
 11 32  1  0
  8  2  1  0
 31 14  1  0
 32  6  1  0
  1 33  1  0
  1 34  1  0
  8 35  1  0
  9 36  1  0
 10 37  1  0
 10 38  1  0
 11 39  1  1
 12 40  1  0
 12 41  1  0
 13 42  1  0
 15 43  1  0
 16 44  1  0
 20 45  1  0
 21 46  1  6
 22 47  1  0
 22 48  1  0
 23 49  1  0
 23 50  1  0
 26 51  1  0
 29 52  1  0
 30 53  1  0
 31 54  1  0
 32 55  1  0
M  END
$$$$

     RDKit          3D

 55 57  0  0  0  0  0  0  0  0999 V2000
    7.5698    3.1221   -1.3910 N   0  0  0  0  0  0  0  0  0  0  0  0
    6.7709    2.1582   -0.7189 C   0  0  0  0  0  0  0  0  0  0  0  0
    6.8840    2.0188    0.6283 N   0  0  0  0  0  0  0  0  0  0  0  0
    6.1423    1.1145    1.2902 C   0  0  0  0  0  0  0  0  0  0  0  0
    6.2191    0.9559    2.5386 O   0  0  0  0  0  0  0  0  0  0  0  0
    5.2535    0.3122    0.6146 C   0  0  0  0  0  0  0  0  0  0  0  0
    5.1224    0.4394   -0.7660 C   0  0  0  0  0  0  0  0  0  0  0  0
    5.8997    1.3693   -1.3670 N   0  0  0  0  0  0  0  0  0  0  0  0
    4.2182   -0.3702   -1.4938 N   0  0  0  0  0  0  0  0  0  0  0  0
    3.2443   -1.1612   -0.7687 C   0  0  0  0  0  0  0  0  0  0  0  0
    3.9086   -1.7356    0.4469 C   0  0  2  0  0  0  0  0  0  0  0  0
    3.0752   -2.6817    1.2557 C   0  0  0  0  0  0  0  0  0  0  0  0
    1.8713   -2.1570    1.7975 N   0  0  0  0  0  0  0  0  0  0  0  0
    0.6741   -1.8338    1.1655 C   0  0  0  0  0  0  0  0  0  0  0  0
   -0.2195   -0.9690    1.7541 C   0  0  0  0  0  0  0  0  0  0  0  0
   -1.4365   -0.6537    1.1514 C   0  0  0  0  0  0  0  0  0  0  0  0
   -1.7791   -1.2043   -0.0591 C   0  0  0  0  0  0  0  0  0  0  0  0
   -3.0574   -0.8923   -0.7311 C   0  0  0  0  0  0  0  0  0  0  0  0
   -3.3830   -1.5262   -1.7850 O   0  0  0  0  0  0  0  0  0  0  0  0
   -3.9679    0.0812   -0.2811 N   0  0  0  0  0  0  0  0  0  0  0  0
   -5.2161    0.3686   -0.9577 C   0  0  1  0  0  0  0  0  0  0  0  0
   -6.4102    0.0104   -0.1630 C   0  0  0  0  0  0  0  0  0  0  0  0
   -6.5913    0.5997    1.1735 C   0  0  0  0  0  0  0  0  0  0  0  0
   -6.7155    2.0136    1.3644 C   0  0  0  0  0  0  0  0  0  0  0  0
   -6.7237    2.8681    0.4807 O   0  0  0  0  0  0  0  0  0  0  0  0
   -6.8429    2.5123    2.6820 O   0  0  0  0  0  0  0  0  0  0  0  0
   -5.2614    1.6807   -1.5480 C   0  0  0  0  0  0  0  0  0  0  0  0
   -4.3543    2.5677   -1.4275 O   0  0  0  0  0  0  0  0  0  0  0  0
   -6.3650    2.0754   -2.3368 O   0  0  0  0  0  0  0  0  0  0  0  0
   -0.8751   -2.0712   -0.6407 C   0  0  0  0  0  0  0  0  0  0  0  0
    0.3423   -2.3908   -0.0442 C   0  0  0  0  0  0  0  0  0  0  0  0
    4.4449   -0.6590    1.2604 N   0  0  0  0  0  0  0  0  0  0  0  0
    8.5733    2.8938   -1.5450 H   0  0  0  0  0  0  0  0  0  0  0  0
    7.1751    4.0256   -1.7211 H   0  0  0  0  0  0  0  0  0  0  0  0
    5.8317    1.4961   -2.3992 H   0  0  0  0  0  0  0  0  0  0  0  0
    4.2840   -0.3696   -2.5308 H   0  0  0  0  0  0  0  0  0  0  0  0
    2.4256   -0.4399   -0.4991 H   0  0  0  0  0  0  0  0  0  0  0  0
    2.8519   -1.9860   -1.4375 H   0  0  0  0  0  0  0  0  0  0  0  0
    4.7925   -2.3173    0.0869 H   0  0  0  0  0  0  0  0  0  0  0  0
    2.8681   -3.5841    0.6188 H   0  0  0  0  0  0  0  0  0  0  0  0
    3.7186   -3.0640    2.0711 H   0  0  0  0  0  0  0  0  0  0  0  0
    1.8903   -1.9844    2.8584 H   0  0  0  0  0  0  0  0  0  0  0  0
   -0.0055   -0.4941    2.7235 H   0  0  0  0  0  0  0  0  0  0  0  0
   -2.1321    0.0237    1.6176 H   0  0  0  0  0  0  0  0  0  0  0  0
   -3.7447    0.6251    0.5736 H   0  0  0  0  0  0  0  0  0  0  0  0
   -5.2679   -0.3604   -1.8687 H   0  0  0  0  0  0  0  0  0  0  0  0
   -6.5790   -1.1189   -0.1421 H   0  0  0  0  0  0  0  0  0  0  0  0
   -7.3048    0.3410   -0.7922 H   0  0  0  0  0  0  0  0  0  0  0  0
   -7.4457    0.0193    1.6874 H   0  0  0  0  0  0  0  0  0  0  0  0
   -5.7067    0.2089    1.8007 H   0  0  0  0  0  0  0  0  0  0  0  0
   -6.6010    3.4862    2.8785 H   0  0  0  0  0  0  0  0  0  0  0  0
   -6.2191    2.7928   -3.0415 H   0  0  0  0  0  0  0  0  0  0  0  0
   -1.1456   -2.5088   -1.6016 H   0  0  0  0  0  0  0  0  0  0  0  0
    1.0185   -3.1007   -0.5478 H   0  0  0  0  0  0  0  0  0  0  0  0
    4.2806   -0.5465    2.2809 H   0  0  0  0  0  0  0  0  0  0  0  0
  1  2  1  0
  2  3  2  0
  3  4  1  0
  4  5  2  0
  4  6  1  0
  6  7  2  0
  7  8  1  0
  7  9  1  0
  9 10  1  0
 10 11  1  0
 11 12  1  0
 12 13  1  0
 13 14  1  0
 14 15  2  0
 15 16  1  0
 16 17  2  0
 17 18  1  0
 18 19  2  0
 18 20  1  0
 20 21  1  0
 21 22  1  0
 22 23  1  0
 23 24  1  0
 24 25  2  0
 24 26  1  0
 21 27  1  0
 27 28  2  0
 27 29  1  0
 17 30  1  0
 30 31  2  0
 11 32  1  0
  8  2  1  0
 31 14  1  0
 32  6  1  0
  1 33  1  0
  1 34  1  0
  8 35  1  0
  9 36  1  0
 10 37  1  0
 10 38  1  0
 11 39  1  6
 12 40  1  0
 12 41  1  0
 13 42  1  0
 15 43  1  0
 16 44  1  0
 20 45  1  0
 21 46  1  6
 22 47  1  0
 22 48  1  0
 23 49  1  0
 23 50  1  0
 26 51  1  0
 29 52  1  0
 30 53  1  0
 31 54  1  0
 32 55  1  0
M  END
$$$$

     RDKit          3D

 55 57  0  0  0  0  0  0  0  0999 V2000
    9.8722    0.1943   -2.2694 N   0  0  0  0  0  0  0  0  0  0  0  0
    8.5134    0.5082   -1.9465 C   0  0  0  0  0  0  0  0  0  0  0  0
    7.9433    1.6752   -2.2996 N   0  0  0  0  0  0  0  0  0  0  0  0
    6.6575    1.8864   -1.9538 C   0  0  0  0  0  0  0  0  0  0  0  0
    6.0712    2.9635   -2.2587 O   0  0  0  0  0  0  0  0  0  0  0  0
    5.9136    0.9382   -1.2488 C   0  0  0  0  0  0  0  0  0  0  0  0
    6.5305   -0.2284   -0.9122 C   0  0  0  0  0  0  0  0  0  0  0  0
    7.8167   -0.4232   -1.2657 N   0  0  0  0  0  0  0  0  0  0  0  0
    5.7733   -1.1955   -0.1925 N   0  0  0  0  0  0  0  0  0  0  0  0
    4.3729   -1.0377    0.1013 C   0  0  0  0  0  0  0  0  0  0  0  0
    3.9715    0.4313    0.2451 C   0  0  2  0  0  0  0  0  0  0  0  0
    2.4847    0.5715    0.1176 C   0  0  0  0  0  0  0  0  0  0  0  0
    1.8053   -0.1845    1.1302 N   0  0  0  0  0  0  0  0  0  0  0  0
    0.3934   -0.1764    1.1670 C   0  0  0  0  0  0  0  0  0  0  0  0
   -0.2987   -0.8914    2.1205 C   0  0  0  0  0  0  0  0  0  0  0  0
   -1.6794   -0.8665    2.1329 C   0  0  0  0  0  0  0  0  0  0  0  0
   -2.4337   -0.1468    1.2204 C   0  0  0  0  0  0  0  0  0  0  0  0
   -3.8922   -0.1654    1.2847 C   0  0  0  0  0  0  0  0  0  0  0  0
   -4.4145   -1.0106    2.0743 O   0  0  0  0  0  0  0  0  0  0  0  0
   -4.7371    0.6804    0.5392 N   0  0  0  0  0  0  0  0  0  0  0  0
   -6.1636    0.7210    0.5196 C   0  0  1  0  0  0  0  0  0  0  0  0
   -6.8488   -0.5644    0.9744 C   0  0  0  0  0  0  0  0  0  0  0  0
   -6.5142   -1.6932    0.0692 C   0  0  0  0  0  0  0  0  0  0  0  0
   -7.0282   -1.3556   -1.3120 C   0  0  0  0  0  0  0  0  0  0  0  0
   -6.3050   -0.8475   -2.2013 O   0  0  0  0  0  0  0  0  0  0  0  0
   -8.3577   -1.6155   -1.6197 O   0  0  0  0  0  0  0  0  0  0  0  0
   -6.7726    1.9216    1.1144 C   0  0  0  0  0  0  0  0  0  0  0  0
   -6.1035    2.8596    1.6135 O   0  0  0  0  0  0  0  0  0  0  0  0
   -8.1525    2.0292    1.1279 O   0  0  0  0  0  0  0  0  0  0  0  0
   -1.7241    0.5583    0.2791 C   0  0  0  0  0  0  0  0  0  0  0  0
   -0.3281    0.5438    0.2526 C   0  0  0  0  0  0  0  0  0  0  0  0
    4.5638    1.1516   -0.8832 N   0  0  0  0  0  0  0  0  0  0  0  0
   10.6579    0.8152   -1.9485 H   0  0  0  0  0  0  0  0  0  0  0  0
   10.0224   -0.6689   -2.8290 H   0  0  0  0  0  0  0  0  0  0  0  0
    8.2785   -1.3210   -1.0021 H   0  0  0  0  0  0  0  0  0  0  0  0
    6.2682   -2.0594    0.1342 H   0  0  0  0  0  0  0  0  0  0  0  0
    3.7137   -1.5125   -0.6632 H   0  0  0  0  0  0  0  0  0  0  0  0
    4.1187   -1.5615    1.0598 H   0  0  0  0  0  0  0  0  0  0  0  0
    4.3165    0.8414    1.2157 H   0  0  0  0  0  0  0  0  0  0  0  0
    2.2478    1.6638    0.1417 H   0  0  0  0  0  0  0  0  0  0  0  0
    2.1963    0.2199   -0.9144 H   0  0  0  0  0  0  0  0  0  0  0  0
    2.3827   -0.7263    1.8196 H   0  0  0  0  0  0  0  0  0  0  0  0
    0.2767   -1.4640    2.8479 H   0  0  0  0  0  0  0  0  0  0  0  0
   -2.2164   -1.4392    2.8965 H   0  0  0  0  0  0  0  0  0  0  0  0
   -4.2153    1.3761   -0.0859 H   0  0  0  0  0  0  0  0  0  0  0  0
   -6.4393    0.7326   -0.5894 H   0  0  0  0  0  0  0  0  0  0  0  0
   -7.9552   -0.3140    0.8649 H   0  0  0  0  0  0  0  0  0  0  0  0
   -6.6734   -0.7146    2.0392 H   0  0  0  0  0  0  0  0  0  0  0  0
   -5.4514   -1.9271   -0.0791 H   0  0  0  0  0  0  0  0  0  0  0  0
   -7.0277   -2.6397    0.4150 H   0  0  0  0  0  0  0  0  0  0  0  0
   -8.7369   -1.2617   -2.5120 H   0  0  0  0  0  0  0  0  0  0  0  0
   -8.6271    2.5496    1.8672 H   0  0  0  0  0  0  0  0  0  0  0  0
   -2.2775    1.1337   -0.4554 H   0  0  0  0  0  0  0  0  0  0  0  0
    0.2024    1.1053   -0.4959 H   0  0  0  0  0  0  0  0  0  0  0  0
    4.0091    1.8395   -1.4472 H   0  0  0  0  0  0  0  0  0  0  0  0
  1  2  1  0
  2  3  2  0
  3  4  1  0
  4  5  2  0
  4  6  1  0
  6  7  2  0
  7  8  1  0
  7  9  1  0
  9 10  1  0
 10 11  1  0
 11 12  1  0
 12 13  1  0
 13 14  1  0
 14 15  2  0
 15 16  1  0
 16 17  2  0
 17 18  1  0
 18 19  2  0
 18 20  1  0
 20 21  1  0
 21 22  1  0
 22 23  1  0
 23 24  1  0
 24 25  2  0
 24 26  1  0
 21 27  1  0
 27 28  2  0
 27 29  1  0
 17 30  1  0
 30 31  2  0
 11 32  1  0
  8  2  1  0
 31 14  1  0
 32  6  1  0
  1 33  1  0
  1 34  1  0
  8 35  1  0
  9 36  1  0
 10 37  1  0
 10 38  1  0
 11 39  1  1
 12 40  1  0
 12 41  1  0
 13 42  1  0
 15 43  1  0
 16 44  1  0
 20 45  1  0
 21 46  1  6
 22 47  1  0
 22 48  1  0
 23 49  1  0
 23 50  1  0
 26 51  1  0
 29 52  1  0
 30 53  1  0
 31 54  1  0
 32 55  1  0
M  END
$$$$

     RDKit          3D

 55 57  0  0  0  0  0  0  0  0999 V2000
   -7.6166    3.2921    1.8979 N   0  0  0  0  0  0  0  0  0  0  0  0
   -6.9769    2.2249    1.2419 C   0  0  0  0  0  0  0  0  0  0  0  0
   -7.6185    1.5673    0.2645 N   0  0  0  0  0  0  0  0  0  0  0  0
   -7.0751    0.5419   -0.4051 C   0  0  0  0  0  0  0  0  0  0  0  0
   -7.6887   -0.0602   -1.3145 O   0  0  0  0  0  0  0  0  0  0  0  0
   -5.7974    0.1368   -0.0813 C   0  0  0  0  0  0  0  0  0  0  0  0
   -5.1279    0.7982    0.9150 C   0  0  0  0  0  0  0  0  0  0  0  0
   -5.7353    1.8235    1.5492 N   0  0  0  0  0  0  0  0  0  0  0  0
   -3.8127    0.3787    1.2445 N   0  0  0  0  0  0  0  0  0  0  0  0
   -2.9971   -0.3259    0.2216 C   0  0  0  0  0  0  0  0  0  0  0  0
   -3.8404   -1.4239   -0.3306 C   0  0  2  0  0  0  0  0  0  0  0  0
   -3.2562   -2.2152   -1.4566 C   0  0  0  0  0  0  0  0  0  0  0  0
   -2.0463   -2.8584   -1.0553 N   0  0  0  0  0  0  0  0  0  0  0  0
   -0.8086   -2.1853   -0.9720 C   0  0  0  0  0  0  0  0  0  0  0  0
   -0.6138   -1.0053   -1.6409 C   0  0  0  0  0  0  0  0  0  0  0  0
    0.5988   -0.3555   -1.5494 C   0  0  0  0  0  0  0  0  0  0  0  0
    1.6565   -0.8494   -0.7955 C   0  0  0  0  0  0  0  0  0  0  0  0
    2.9205   -0.1572   -0.7098 C   0  0  0  0  0  0  0  0  0  0  0  0
    3.0471    0.9286   -1.3523 O   0  0  0  0  0  0  0  0  0  0  0  0
    4.0325   -0.5972    0.0376 N   0  0  0  0  0  0  0  0  0  0  0  0
    5.2911    0.1744    0.0702 C   0  0  1  0  0  0  0  0  0  0  0  0
    5.5026    0.5330    1.5139 C   0  0  0  0  0  0  0  0  0  0  0  0
    6.7308    1.3251    1.7986 C   0  0  0  0  0  0  0  0  0  0  0  0
    6.8170    2.6261    1.1272 C   0  0  0  0  0  0  0  0  0  0  0  0
    5.8952    3.0253    0.3788 O   0  0  0  0  0  0  0  0  0  0  0  0
    7.9169    3.4371    1.3071 O   0  0  0  0  0  0  0  0  0  0  0  0
    6.3636   -0.6906   -0.4464 C   0  0  0  0  0  0  0  0  0  0  0  0
    6.1137   -1.8530   -0.8088 O   0  0  0  0  0  0  0  0  0  0  0  0
    7.6501   -0.2080   -0.5282 O   0  0  0  0  0  0  0  0  0  0  0  0
    1.4198   -2.0337   -0.1414 C   0  0  0  0  0  0  0  0  0  0  0  0
    0.2353   -2.7131   -0.2024 C   0  0  0  0  0  0  0  0  0  0  0  0
   -5.1513   -0.9389   -0.7400 N   0  0  0  0  0  0  0  0  0  0  0  0
   -8.1755    3.9745    1.3548 H   0  0  0  0  0  0  0  0  0  0  0  0
   -7.5343    3.4032    2.9219 H   0  0  0  0  0  0  0  0  0  0  0  0
   -5.2041    2.2987    2.2928 H   0  0  0  0  0  0  0  0  0  0  0  0
   -3.4490    0.5724    2.1893 H   0  0  0  0  0  0  0  0  0  0  0  0
   -2.0987   -0.6553    0.7507 H   0  0  0  0  0  0  0  0  0  0  0  0
   -2.7985    0.4235   -0.5996 H   0  0  0  0  0  0  0  0  0  0  0  0
   -4.0704   -2.0994    0.5532 H   0  0  0  0  0  0  0  0  0  0  0  0
   -4.0074   -2.9597   -1.8558 H   0  0  0  0  0  0  0  0  0  0  0  0
   -3.0639   -1.5692   -2.3628 H   0  0  0  0  0  0  0  0  0  0  0  0
   -2.0506   -3.9059   -0.7987 H   0  0  0  0  0  0  0  0  0  0  0  0
   -1.3755   -0.5564   -2.2458 H   0  0  0  0  0  0  0  0  0  0  0  0
    0.7918    0.5867   -2.0679 H   0  0  0  0  0  0  0  0  0  0  0  0
    3.9492   -1.4880    0.5734 H   0  0  0  0  0  0  0  0  0  0  0  0
    5.1124    1.0626   -0.5748 H   0  0  0  0  0  0  0  0  0  0  0  0
    4.5857    1.0098    1.9082 H   0  0  0  0  0  0  0  0  0  0  0  0
    5.5899   -0.4378    2.0725 H   0  0  0  0  0  0  0  0  0  0  0  0
    7.6518    0.7040    1.6161 H   0  0  0  0  0  0  0  0  0  0  0  0
    6.7513    1.4726    2.9204 H   0  0  0  0  0  0  0  0  0  0  0  0
    8.2154    4.1436    0.6436 H   0  0  0  0  0  0  0  0  0  0  0  0
    8.4745   -0.8153   -0.5524 H   0  0  0  0  0  0  0  0  0  0  0  0
    2.2236   -2.4715    0.4711 H   0  0  0  0  0  0  0  0  0  0  0  0
    0.0689   -3.6319    0.3123 H   0  0  0  0  0  0  0  0  0  0  0  0
   -5.6154   -1.4034   -1.5372 H   0  0  0  0  0  0  0  0  0  0  0  0
  1  2  1  0
  2  3  2  0
  3  4  1  0
  4  5  2  0
  4  6  1  0
  6  7  2  0
  7  8  1  0
  7  9  1  0
  9 10  1  0
 10 11  1  0
 11 12  1  0
 12 13  1  0
 13 14  1  0
 14 15  2  0
 15 16  1  0
 16 17  2  0
 17 18  1  0
 18 19  2  0
 18 20  1  0
 20 21  1  0
 21 22  1  0
 22 23  1  0
 23 24  1  0
 24 25  2  0
 24 26  1  0
 21 27  1  0
 27 28  2  0
 27 29  1  0
 17 30  1  0
 30 31  2  0
 11 32  1  0
  8  2  1  0
 31 14  1  0
 32  6  1  0
  1 33  1  0
  1 34  1  0
  8 35  1  0
  9 36  1  0
 10 37  1  0
 10 38  1  0
 11 39  1  1
 12 40  1  0
 12 41  1  0
 13 42  1  0
 15 43  1  0
 16 44  1  0
 20 45  1  0
 21 46  1  6
 22 47  1  0
 22 48  1  0
 23 49  1  0
 23 50  1  0
 26 51  1  0
 29 52  1  0
 30 53  1  0
 31 54  1  0
 32 55  1  0
M  END
$$$$

     RDKit          3D

 55 57  0  0  0  0  0  0  0  0999 V2000
   -9.4330   -1.1440    1.0539 N   0  0  0  0  0  0  0  0  0  0  0  0
   -8.1842   -0.5056    0.9226 C   0  0  0  0  0  0  0  0  0  0  0  0
   -8.0587    0.8046    1.2064 N   0  0  0  0  0  0  0  0  0  0  0  0
   -6.8755    1.4526    1.0917 C   0  0  0  0  0  0  0  0  0  0  0  0
   -6.7940    2.6791    1.3654 O   0  0  0  0  0  0  0  0  0  0  0  0
   -5.7508    0.7730    0.6737 C   0  0  0  0  0  0  0  0  0  0  0  0
   -5.8861   -0.5636    0.3859 C   0  0  0  0  0  0  0  0  0  0  0  0
   -7.0773   -1.1503    0.5171 N   0  0  0  0  0  0  0  0  0  0  0  0
   -4.7189   -1.2536   -0.0464 N   0  0  0  0  0  0  0  0  0  0  0  0
   -3.6999   -0.4885   -0.7353 C   0  0  0  0  0  0  0  0  0  0  0  0
   -3.2631    0.6248    0.2049 C   0  0  2  0  0  0  0  0  0  0  0  0
   -2.7224   -0.0580    1.4381 C   0  0  0  0  0  0  0  0  0  0  0  0
   -1.6100   -0.9111    1.1364 N   0  0  0  0  0  0  0  0  0  0  0  0
   -0.3663   -0.3827    0.6892 C   0  0  0  0  0  0  0  0  0  0  0  0
   -0.0615    0.9537    0.7406 C   0  0  0  0  0  0  0  0  0  0  0  0
    1.1662    1.4387    0.2754 C   0  0  0  0  0  0  0  0  0  0  0  0
    2.1246    0.5998   -0.2541 C   0  0  0  0  0  0  0  0  0  0  0  0
    3.3836    1.1204   -0.7399 C   0  0  0  0  0  0  0  0  0  0  0  0
    3.4886    2.3854   -0.8884 O   0  0  0  0  0  0  0  0  0  0  0  0
    4.5119    0.3601   -1.0661 N   0  0  0  0  0  0  0  0  0  0  0  0
    5.7520    0.9001   -1.5507 C   0  0  1  0  0  0  0  0  0  0  0  0
    6.8233    1.0267   -0.5380 C   0  0  0  0  0  0  0  0  0  0  0  0
    7.2952   -0.1676    0.1794 C   0  0  0  0  0  0  0  0  0  0  0  0
    6.3339   -0.8122    1.0899 C   0  0  0  0  0  0  0  0  0  0  0  0
    5.2327   -0.3380    1.4536 O   0  0  0  0  0  0  0  0  0  0  0  0
    6.6146   -2.0866    1.6436 O   0  0  0  0  0  0  0  0  0  0  0  0
    6.1624    0.1817   -2.7737 C   0  0  0  0  0  0  0  0  0  0  0  0
    5.4732   -0.7568   -3.2576 O   0  0  0  0  0  0  0  0  0  0  0  0
    7.3299    0.5104   -3.4461 O   0  0  0  0  0  0  0  0  0  0  0  0
    1.8122   -0.7346   -0.3013 C   0  0  0  0  0  0  0  0  0  0  0  0
    0.6067   -1.2357    0.1518 C   0  0  0  0  0  0  0  0  0  0  0  0
   -4.4772    1.3840    0.5318 N   0  0  0  0  0  0  0  0  0  0  0  0
   -9.5825   -1.8457    1.7938 H   0  0  0  0  0  0  0  0  0  0  0  0
  -10.2014   -0.9096    0.4081 H   0  0  0  0  0  0  0  0  0  0  0  0
   -7.1262   -2.1694    0.2865 H   0  0  0  0  0  0  0  0  0  0  0  0
   -4.6519   -2.2851    0.1534 H   0  0  0  0  0  0  0  0  0  0  0  0
   -2.8478   -1.1263   -1.0408 H   0  0  0  0  0  0  0  0  0  0  0  0
   -4.1055    0.0229   -1.6464 H   0  0  0  0  0  0  0  0  0  0  0  0
   -2.5426    1.2592   -0.3147 H   0  0  0  0  0  0  0  0  0  0  0  0
   -2.3883    0.7117    2.1704 H   0  0  0  0  0  0  0  0  0  0  0  0
   -3.5477   -0.6101    1.9155 H   0  0  0  0  0  0  0  0  0  0  0  0
   -1.7235   -1.9630    1.2517 H   0  0  0  0  0  0  0  0  0  0  0  0
   -0.7715    1.6658    1.1574 H   0  0  0  0  0  0  0  0  0  0  0  0
    1.3971    2.4910    0.3190 H   0  0  0  0  0  0  0  0  0  0  0  0
    4.4119   -0.6987   -0.9694 H   0  0  0  0  0  0  0  0  0  0  0  0
    5.5740    1.9861   -1.9018 H   0  0  0  0  0  0  0  0  0  0  0  0
    6.4819    1.7693    0.2593 H   0  0  0  0  0  0  0  0  0  0  0  0
    7.7317    1.5747   -0.9595 H   0  0  0  0  0  0  0  0  0  0  0  0
    8.1633    0.1626    0.8347 H   0  0  0  0  0  0  0  0  0  0  0  0
    7.7781   -0.9245   -0.5062 H   0  0  0  0  0  0  0  0  0  0  0  0
    6.3875   -2.2629    2.6154 H   0  0  0  0  0  0  0  0  0  0  0  0
    7.8817   -0.1685   -3.9584 H   0  0  0  0  0  0  0  0  0  0  0  0
    2.5719   -1.4120   -0.7244 H   0  0  0  0  0  0  0  0  0  0  0  0
    0.4045   -2.2968    0.0929 H   0  0  0  0  0  0  0  0  0  0  0  0
   -4.4266    2.4231    0.6723 H   0  0  0  0  0  0  0  0  0  0  0  0
  1  2  1  0
  2  3  2  0
  3  4  1  0
  4  5  2  0
  4  6  1  0
  6  7  2  0
  7  8  1  0
  7  9  1  0
  9 10  1  0
 10 11  1  0
 11 12  1  0
 12 13  1  0
 13 14  1  0
 14 15  2  0
 15 16  1  0
 16 17  2  0
 17 18  1  0
 18 19  2  0
 18 20  1  0
 20 21  1  0
 21 22  1  0
 22 23  1  0
 23 24  1  0
 24 25  2  0
 24 26  1  0
 21 27  1  0
 27 28  2  0
 27 29  1  0
 17 30  1  0
 30 31  2  0
 11 32  1  0
  8  2  1  0
 31 14  1  0
 32  6  1  0
  1 33  1  0
  1 34  1  0
  8 35  1  0
  9 36  1  0
 10 37  1  0
 10 38  1  0
 11 39  1  6
 12 40  1  0
 12 41  1  0
 13 42  1  0
 15 43  1  0
 16 44  1  0
 20 45  1  0
 21 46  1  6
 22 47  1  0
 22 48  1  0
 23 49  1  0
 23 50  1  0
 26 51  1  0
 29 52  1  0
 30 53  1  0
 31 54  1  0
 32 55  1  0
M  END
$$$$

     RDKit          3D

 55 57  0  0  0  0  0  0  0  0999 V2000
   -8.9205    2.2844   -0.2508 N   0  0  0  0  0  0  0  0  0  0  0  0
   -7.5775    2.0190    0.0867 C   0  0  0  0  0  0  0  0  0  0  0  0
   -7.0995    2.3617    1.2771 N   0  0  0  0  0  0  0  0  0  0  0  0
   -5.8146    2.1324    1.6546 C   0  0  0  0  0  0  0  0  0  0  0  0
   -5.3848    2.4673    2.7928 O   0  0  0  0  0  0  0  0  0  0  0  0
   -5.0027    1.5130    0.7290 C   0  0  0  0  0  0  0  0  0  0  0  0
   -5.4798    1.1481   -0.5132 C   0  0  0  0  0  0  0  0  0  0  0  0
   -6.7680    1.4165   -0.7970 N   0  0  0  0  0  0  0  0  0  0  0  0
   -4.6259    0.5061   -1.4643 N   0  0  0  0  0  0  0  0  0  0  0  0
   -3.2035    0.6789   -1.3053 C   0  0  0  0  0  0  0  0  0  0  0  0
   -2.8010    0.4314    0.1584 C   0  0  2  0  0  0  0  0  0  0  0  0
   -3.0311   -1.0375    0.3947 C   0  0  0  0  0  0  0  0  0  0  0  0
   -2.2131   -1.7906   -0.5199 N   0  0  0  0  0  0  0  0  0  0  0  0
   -0.8161   -1.7705   -0.4072 C   0  0  0  0  0  0  0  0  0  0  0  0
   -0.1274   -1.2672    0.6760 C   0  0  0  0  0  0  0  0  0  0  0  0
    1.2568   -1.2549    0.7298 C   0  0  0  0  0  0  0  0  0  0  0  0
    2.0203   -1.7489   -0.3028 C   0  0  0  0  0  0  0  0  0  0  0  0
    3.4772   -1.7469   -0.2660 C   0  0  0  0  0  0  0  0  0  0  0  0
    4.0993   -2.2661   -1.2230 O   0  0  0  0  0  0  0  0  0  0  0  0
    4.2310   -1.1960    0.7802 N   0  0  0  0  0  0  0  0  0  0  0  0
    5.6824   -1.1826    0.8373 C   0  0  1  0  0  0  0  0  0  0  0  0
    6.1848    0.2541    0.7743 C   0  0  0  0  0  0  0  0  0  0  0  0
    5.7332    0.8986   -0.5251 C   0  0  0  0  0  0  0  0  0  0  0  0
    6.1982    2.2909   -0.6074 C   0  0  0  0  0  0  0  0  0  0  0  0
    5.9039    3.1117    0.2892 O   0  0  0  0  0  0  0  0  0  0  0  0
    6.9795    2.7312   -1.6876 O   0  0  0  0  0  0  0  0  0  0  0  0
    6.0998   -1.8592    2.0717 C   0  0  0  0  0  0  0  0  0  0  0  0
    5.2492   -2.3195    2.8574 O   0  0  0  0  0  0  0  0  0  0  0  0
    7.4374   -1.9927    2.3738 O   0  0  0  0  0  0  0  0  0  0  0  0
    1.3300   -2.2523   -1.3848 C   0  0  0  0  0  0  0  0  0  0  0  0
   -0.0377   -2.2732   -1.4581 C   0  0  0  0  0  0  0  0  0  0  0  0
   -3.6359    1.2373    1.0435 N   0  0  0  0  0  0  0  0  0  0  0  0
   -9.5390    2.8925    0.3366 H   0  0  0  0  0  0  0  0  0  0  0  0
   -9.3820    1.8900   -1.1120 H   0  0  0  0  0  0  0  0  0  0  0  0
   -7.1007    1.1317   -1.7397 H   0  0  0  0  0  0  0  0  0  0  0  0
   -5.0691   -0.0473   -2.2164 H   0  0  0  0  0  0  0  0  0  0  0  0
   -2.9106    1.7027   -1.5818 H   0  0  0  0  0  0  0  0  0  0  0  0
   -2.6208   -0.0341   -1.9256 H   0  0  0  0  0  0  0  0  0  0  0  0
   -1.7700    0.7754    0.2857 H   0  0  0  0  0  0  0  0  0  0  0  0
   -2.7826   -1.3231    1.4403 H   0  0  0  0  0  0  0  0  0  0  0  0
   -4.1149   -1.2220    0.2419 H   0  0  0  0  0  0  0  0  0  0  0  0
   -2.6736   -2.3446   -1.2542 H   0  0  0  0  0  0  0  0  0  0  0  0
   -0.6745   -0.8782    1.5142 H   0  0  0  0  0  0  0  0  0  0  0  0
    1.7222   -0.8381    1.6220 H   0  0  0  0  0  0  0  0  0  0  0  0
    3.7409   -0.7602    1.5896 H   0  0  0  0  0  0  0  0  0  0  0  0
    6.1254   -1.6851   -0.0633 H   0  0  0  0  0  0  0  0  0  0  0  0
    7.3005    0.1580    0.6930 H   0  0  0  0  0  0  0  0  0  0  0  0
    5.9568    0.8251    1.6721 H   0  0  0  0  0  0  0  0  0  0  0  0
    6.1944    0.3138   -1.3486 H   0  0  0  0  0  0  0  0  0  0  0  0
    4.6235    0.8498   -0.6364 H   0  0  0  0  0  0  0  0  0  0  0  0
    7.7071    3.4206   -1.5650 H   0  0  0  0  0  0  0  0  0  0  0  0
    7.8171   -2.6752    3.0209 H   0  0  0  0  0  0  0  0  0  0  0  0
    1.9261   -2.6397   -2.1947 H   0  0  0  0  0  0  0  0  0  0  0  0
   -0.5637   -2.6776   -2.3282 H   0  0  0  0  0  0  0  0  0  0  0  0
   -3.2561    1.6411    1.9418 H   0  0  0  0  0  0  0  0  0  0  0  0
  1  2  1  0
  2  3  2  0
  3  4  1  0
  4  5  2  0
  4  6  1  0
  6  7  2  0
  7  8  1  0
  7  9  1  0
  9 10  1  0
 10 11  1  0
 11 12  1  0
 12 13  1  0
 13 14  1  0
 14 15  2  0
 15 16  1  0
 16 17  2  0
 17 18  1  0
 18 19  2  0
 18 20  1  0
 20 21  1  0
 21 22  1  0
 22 23  1  0
 23 24  1  0
 24 25  2  0
 24 26  1  0
 21 27  1  0
 27 28  2  0
 27 29  1  0
 17 30  1  0
 30 31  2  0
 11 32  1  0
  8  2  1  0
 31 14  1  0
 32  6  1  0
  1 33  1  0
  1 34  1  0
  8 35  1  0
  9 36  1  0
 10 37  1  0
 10 38  1  0
 11 39  1  6
 12 40  1  0
 12 41  1  0
 13 42  1  0
 15 43  1  0
 16 44  1  0
 20 45  1  0
 21 46  1  6
 22 47  1  0
 22 48  1  0
 23 49  1  0
 23 50  1  0
 26 51  1  0
 29 52  1  0
 30 53  1  0
 31 54  1  0
 32 55  1  0
M  END
$$$$
